/*---------------------------------------------------------------------------*\
| =========                 |                                                 |
| \\      /  F ield         | OpenFOAM: The Open Source CFD Toolbox           |
|  \\    /   O peration     | Version:  1.4.1                                 |
|   \\  /    A nd           | Web:      http://www.openfoam.org               |
|    \\/     M anipulation  |                                                 |
\*---------------------------------------------------------------------------*/
/*           Windows porting by Symscape: http://www.symscape.com/           *\
\*---------------------------------------------------------------------------*/

Exec   : icoDyMFoam . movingCone 
Date   : Mar 26 2008
Time   : 10:06:54
Host   : hill-linux
PID    : 14
Root   : Z:/home/richardsmith/projects/openfoam/1.4.1/richardsmith-1.4.1/run/tutorials/icoDyMFoam
Case   : movingCone
Nprocs : 1
--> FOAM Warning : 
    From function Foam::sigQuit::set()
    in file OSspecific/MSwindows/signals/sigQuit.C at line 114
    Cannot set SIGBREAK trapping
Create time

Create mesh for time = 0

Selecting dynamicFvMesh dynamicMotionSolverFvMesh
Selecting motion solver: velocityComponentLaplacian
Selecting motion diffusion: directional
Reading transportProperties

Reading field p

Reading field U

Reading/calculating face flux field phi

Reading field rAU if present


Starting time loop

Courant Number mean: 0 max: 0.3
Time = 5e-06

DICPCG:  Solving for cellMotionUx, Initial residual = 1, Final residual = 7.49014e-09, No Iterations 41
DICPCG:  Solving for pcorr, Initial residual = 1, Final residual = 0.00667693, No Iterations 56
time step continuity errors : sum local = 6.71014e-06, global = -2.72801e-07, cumulative = -2.72801e-07
DILUPBiCG:  Solving for Ux, Initial residual = 1, Final residual = 7.82288e-06, No Iterations 2
DILUPBiCG:  Solving for Uy, Initial residual = 0, Final residual = 0, No Iterations 0
DILUPBiCG:  Solving for Uz, Initial residual = 0, Final residual = 0, No Iterations 0
DICPCG:  Solving for p, Initial residual = 1, Final residual = 0.0432287, No Iterations 51
time step continuity errors : sum local = 4.35178e-05, global = -1.54102e-06, cumulative = -1.81382e-06
DICPCG:  Solving for p, Initial residual = 0.00698879, Final residual = 9.00013e-07, No Iterations 62
time step continuity errors : sum local = 1.07622e-07, global = 1.71678e-09, cumulative = -1.8121e-06
ExecutionTime = 0.38 s  ClockTime = 0 s

Courant Number mean: 0.0375819 max: 0.372289
Time = 1e-05

DICPCG:  Solving for cellMotionUx, Initial residual = 7.1381e-06, Final residual = 9.37194e-09, No Iterations 18
DICPCG:  Solving for pcorr, Initial residual = 1, Final residual = 0.00972433, No Iterations 11
time step continuity errors : sum local = 1.04655e-09, global = -1.72117e-11, cumulative = -1.81212e-06
DILUPBiCG:  Solving for Ux, Initial residual = 0.344507, Final residual = 1.10947e-06, No Iterations 2
DILUPBiCG:  Solving for Uy, Initial residual = 0.325978, Final residual = 2.29455e-06, No Iterations 2
DILUPBiCG:  Solving for Uz, Initial residual = 0.397181, Final residual = 3.88328e-07, No Iterations 2
DICPCG:  Solving for p, Initial residual = 0.0111126, Final residual = 0.000478805, No Iterations 50
time step continuity errors : sum local = 5.54552e-05, global = 5.9727e-07, cumulative = -1.21485e-06
DICPCG:  Solving for p, Initial residual = 0.138773, Final residual = 8.76222e-07, No Iterations 67
time step continuity errors : sum local = 5.1242e-09, global = 2.61801e-11, cumulative = -1.21482e-06
ExecutionTime = 0.48 s  ClockTime = 0 s

Courant Number mean: 0.0376431 max: 0.356495
Time = 1.5e-05

DICPCG:  Solving for cellMotionUx, Initial residual = 7.04931e-06, Final residual = 9.36052e-09, No Iterations 18
DICPCG:  Solving for pcorr, Initial residual = 1, Final residual = 0.00894856, No Iterations 12
time step continuity errors : sum local = 4.58542e-11, global = -9.12549e-14, cumulative = -1.21482e-06
DILUPBiCG:  Solving for Ux, Initial residual = 0.0290087, Final residual = 2.48837e-07, No Iterations 2
DILUPBiCG:  Solving for Uy, Initial residual = 0.0184708, Final residual = 3.23485e-07, No Iterations 2
DILUPBiCG:  Solving for Uz, Initial residual = 0.0360983, Final residual = 1.77456e-06, No Iterations 2
DICPCG:  Solving for p, Initial residual = 0.0551126, Final residual = 0.00188509, No Iterations 47
time step continuity errors : sum local = 1.51049e-05, global = 7.11955e-07, cumulative = -5.02866e-07
DICPCG:  Solving for p, Initial residual = 0.029561, Final residual = 8.66025e-07, No Iterations 66
time step continuity errors : sum local = 2.85721e-09, global = -2.632e-11, cumulative = -5.02893e-07
ExecutionTime = 0.6 s  ClockTime = 0 s

Courant Number mean: 0.0375865 max: 0.364855
Time = 2e-05

DICPCG:  Solving for cellMotionUx, Initial residual = 6.96661e-06, Final residual = 9.08938e-09, No Iterations 18
DICPCG:  Solving for pcorr, Initial residual = 1, Final residual = 0.00796823, No Iterations 13
time step continuity errors : sum local = 2.27669e-11, global = -6.29899e-13, cumulative = -5.02893e-07
DILUPBiCG:  Solving for Ux, Initial residual = 0.0130482, Final residual = 1.1051e-07, No Iterations 2
DILUPBiCG:  Solving for Uy, Initial residual = 0.008902, Final residual = 2.57169e-07, No Iterations 2
DILUPBiCG:  Solving for Uz, Initial residual = 0.0196464, Final residual = 2.05418e-07, No Iterations 2
DICPCG:  Solving for p, Initial residual = 0.0793095, Final residual = 0.00386929, No Iterations 44
time step continuity errors : sum local = 1.01878e-05, global = 8.95744e-08, cumulative = -4.13319e-07
DICPCG:  Solving for p, Initial residual = 0.0173811, Final residual = 7.21038e-07, No Iterations 64
time step continuity errors : sum local = 1.17038e-09, global = 2.24244e-11, cumulative = -4.13296e-07
ExecutionTime = 0.73 s  ClockTime = 0 s

Courant Number mean: 0.037558 max: 0.381641
Time = 2.5e-05

DICPCG:  Solving for cellMotionUx, Initial residual = 6.88611e-06, Final residual = 8.917e-09, No Iterations 18
DICPCG:  Solving for pcorr, Initial residual = 1, Final residual = 0.00948042, No Iterations 12
time step continuity errors : sum local = 1.10957e-11, global = -3.57697e-13, cumulative = -4.13297e-07
DILUPBiCG:  Solving for Ux, Initial residual = 0.0069336, Final residual = 8.57273e-08, No Iterations 2
DILUPBiCG:  Solving for Uy, Initial residual = 0.00527395, Final residual = 2.54009e-07, No Iterations 2
DILUPBiCG:  Solving for Uz, Initial residual = 0.0177245, Final residual = 2.02736e-07, No Iterations 2
DICPCG:  Solving for p, Initial residual = 0.08905, Final residual = 0.00427716, No Iterations 14
time step continuity errors : sum local = 6.09952e-06, global = -7.10736e-07, cumulative = -1.12403e-06
DICPCG:  Solving for p, Initial residual = 0.00833778, Final residual = 6.43595e-07, No Iterations 61
time step continuity errors : sum local = 8.90692e-10, global = -1.82826e-12, cumulative = -1.12403e-06
ExecutionTime = 0.85 s  ClockTime = 0 s

Courant Number mean: 0.0375373 max: 0.396609
Time = 3e-05

DICPCG:  Solving for cellMotionUx, Initial residual = 6.80691e-06, Final residual = 8.59009e-09, No Iterations 18
DICPCG:  Solving for pcorr, Initial residual = 1, Final residual = 0.00686605, No Iterations 12
time step continuity errors : sum local = 6.11554e-12, global = 2.36964e-13, cumulative = -1.12403e-06
DILUPBiCG:  Solving for Ux, Initial residual = 0.00705151, Final residual = 8.87788e-08, No Iterations 2
DILUPBiCG:  Solving for Uy, Initial residual = 0.0043806, Final residual = 4.46607e-07, No Iterations 2
DILUPBiCG:  Solving for Uz, Initial residual = 0.0175301, Final residual = 1.10347e-07, No Iterations 2
DICPCG:  Solving for p, Initial residual = 0.0541696, Final residual = 0.00208197, No Iterations 4
time step continuity errors : sum local = 3.53171e-06, global = 7.13665e-08, cumulative = -1.05267e-06
DICPCG:  Solving for p, Initial residual = 0.00410282, Final residual = 8.25705e-07, No Iterations 59
time step continuity errors : sum local = 1.37024e-09, global = 4.80891e-11, cumulative = -1.05262e-06
ExecutionTime = 0.96 s  ClockTime = 1 s

Courant Number mean: 0.0375223 max: 0.410359
Time = 3.5e-05

DICPCG:  Solving for cellMotionUx, Initial residual = 6.72974e-06, Final residual = 8.45437e-09, No Iterations 18
DICPCG:  Solving for pcorr, Initial residual = 1, Final residual = 0.00633786, No Iterations 15
time step continuity errors : sum local = 8.68438e-12, global = 2.30748e-13, cumulative = -1.05262e-06
DILUPBiCG:  Solving for Ux, Initial residual = 0.00635707, Final residual = 7.77968e-08, No Iterations 2
DILUPBiCG:  Solving for Uy, Initial residual = 0.0044088, Final residual = 3.24638e-06, No Iterations 2
DILUPBiCG:  Solving for Uz, Initial residual = 0.0169306, Final residual = 8.71583e-08, No Iterations 2
DICPCG:  Solving for p, Initial residual = 0.0478963, Final residual = 0.00219536, No Iterations 3
time step continuity errors : sum local = 3.34829e-06, global = -9.34983e-09, cumulative = -1.06197e-06
DICPCG:  Solving for p, Initial residual = 0.00388682, Final residual = 9.0316e-07, No Iterations 59
time step continuity errors : sum local = 1.35129e-09, global = 4.55655e-11, cumulative = -1.06192e-06
ExecutionTime = 1.07 s  ClockTime = 1 s

Courant Number mean: 0.037511 max: 0.423006
Time = 4e-05

DICPCG:  Solving for cellMotionUx, Initial residual = 6.65427e-06, Final residual = 7.62935e-09, No Iterations 18
DICPCG:  Solving for pcorr, Initial residual = 1, Final residual = 0.00799949, No Iterations 10
time step continuity errors : sum local = 1.08096e-11, global = 4.58592e-13, cumulative = -1.06192e-06
DILUPBiCG:  Solving for Ux, Initial residual = 0.00609075, Final residual = 7.8113e-08, No Iterations 2
DILUPBiCG:  Solving for Uy, Initial residual = 0.00417424, Final residual = 6.14026e-07, No Iterations 2
DILUPBiCG:  Solving for Uz, Initial residual = 0.0164384, Final residual = 9.61847e-08, No Iterations 2
DICPCG:  Solving for p, Initial residual = 0.0404804, Final residual = 0.00166757, No Iterations 3
time step continuity errors : sum local = 2.42016e-06, global = 4.11984e-09, cumulative = -1.0578e-06
DICPCG:  Solving for p, Initial residual = 0.00334563, Final residual = 6.2839e-07, No Iterations 60
time step continuity errors : sum local = 8.97259e-10, global = 2.0248e-11, cumulative = -1.05778e-06
ExecutionTime = 1.18 s  ClockTime = 1 s

Courant Number mean: 0.0375055 max: 0.434445
Time = 4.5e-05

DICPCG:  Solving for cellMotionUx, Initial residual = 6.58043e-06, Final residual = 7.73013e-09, No Iterations 18
DICPCG:  Solving for pcorr, Initial residual = 1, Final residual = 0.00753755, No Iterations 12
time step continuity errors : sum local = 6.76313e-12, global = 3.09248e-13, cumulative = -1.05778e-06
DILUPBiCG:  Solving for Ux, Initial residual = 0.00577182, Final residual = 8.98398e-08, No Iterations 2
DILUPBiCG:  Solving for Uy, Initial residual = 0.00421001, Final residual = 3.25547e-07, No Iterations 2
DILUPBiCG:  Solving for Uz, Initial residual = 0.0155324, Final residual = 7.83734e-08, No Iterations 2
DICPCG:  Solving for p, Initial residual = 0.0360707, Final residual = 0.00161236, No Iterations 3
time step continuity errors : sum local = 2.22152e-06, global = -1.53735e-09, cumulative = -1.05932e-06
DICPCG:  Solving for p, Initial residual = 0.00324522, Final residual = 6.34283e-07, No Iterations 60
time step continuity errors : sum local = 8.64941e-10, global = 1.71172e-11, cumulative = -1.0593e-06
ExecutionTime = 1.28 s  ClockTime = 1 s

Courant Number mean: 0.0375048 max: 0.44461
Time = 5e-05

DICPCG:  Solving for cellMotionUx, Initial residual = 6.50786e-06, Final residual = 7.05392e-09, No Iterations 18
DICPCG:  Solving for pcorr, Initial residual = 1, Final residual = 0.00677998, No Iterations 12
time step continuity errors : sum local = 5.86428e-12, global = 2.962e-13, cumulative = -1.0593e-06
DILUPBiCG:  Solving for Ux, Initial residual = 0.00555008, Final residual = 1.06952e-07, No Iterations 2
DILUPBiCG:  Solving for Uy, Initial residual = 0.00421143, Final residual = 2.41684e-07, No Iterations 2
DILUPBiCG:  Solving for Uz, Initial residual = 0.015305, Final residual = 8.284e-08, No Iterations 2
DICPCG:  Solving for p, Initial residual = 0.0319534, Final residual = 0.00100756, No Iterations 4
time step continuity errors : sum local = 1.35156e-06, global = 1.27504e-09, cumulative = -1.05803e-06
DICPCG:  Solving for p, Initial residual = 0.00283019, Final residual = 6.95716e-07, No Iterations 59
time step continuity errors : sum local = 9.25531e-10, global = 2.65667e-11, cumulative = -1.058e-06
ExecutionTime = 1.4 s  ClockTime = 1 s

Courant Number mean: 0.0375083 max: 0.453444
Time = 5.5e-05

DICPCG:  Solving for cellMotionUx, Initial residual = 6.43575e-06, Final residual = 8.0372e-09, No Iterations 18
DICPCG:  Solving for pcorr, Initial residual = 1, Final residual = 0.00850503, No Iterations 11
time step continuity errors : sum local = 7.87167e-12, global = 2.94289e-13, cumulative = -1.058e-06
DILUPBiCG:  Solving for Ux, Initial residual = 0.00533905, Final residual = 1.31961e-07, No Iterations 2
DILUPBiCG:  Solving for Uy, Initial residual = 0.00423544, Final residual = 2.16005e-07, No Iterations 2
DILUPBiCG:  Solving for Uz, Initial residual = 0.0146758, Final residual = 1.55319e-07, No Iterations 2
DICPCG:  Solving for p, Initial residual = 0.0286888, Final residual = 0.00101788, No Iterations 4
time step continuity errors : sum local = 1.32574e-06, global = -3.58872e-10, cumulative = -1.05836e-06
DICPCG:  Solving for p, Initial residual = 0.00278526, Final residual = 7.51092e-07, No Iterations 59
time step continuity errors : sum local = 9.70766e-10, global = 2.99291e-11, cumulative = -1.05833e-06
ExecutionTime = 1.51 s  ClockTime = 1 s

Courant Number mean: 0.037519 max: 0.460925
Time = 6e-05

DICPCG:  Solving for cellMotionUx, Initial residual = 6.36502e-06, Final residual = 7.4697e-09, No Iterations 18
DICPCG:  Solving for pcorr, Initial residual = 1, Final residual = 0.00756515, No Iterations 12
time step continuity errors : sum local = 7.34399e-12, global = 3.26404e-13, cumulative = -1.05833e-06
DILUPBiCG:  Solving for Ux, Initial residual = 0.00519413, Final residual = 1.65467e-07, No Iterations 2
DILUPBiCG:  Solving for Uy, Initial residual = 0.00424736, Final residual = 2.02555e-07, No Iterations 2
DILUPBiCG:  Solving for Uz, Initial residual = 0.0144428, Final residual = 2.32401e-07, No Iterations 2
DICPCG:  Solving for p, Initial residual = 0.0257774, Final residual = 0.0010075, No Iterations 4
time step continuity errors : sum local = 1.28005e-06, global = 4.09051e-10, cumulative = -1.05792e-06
DICPCG:  Solving for p, Initial residual = 0.00268949, Final residual = 7.42219e-07, No Iterations 59
time step continuity errors : sum local = 9.37046e-10, global = 2.8032e-11, cumulative = -1.05789e-06
ExecutionTime = 1.62 s  ClockTime = 1 s

Courant Number mean: 0.0375328 max: 0.467062
Time = 6.5e-05

DICPCG:  Solving for cellMotionUx, Initial residual = 6.29484e-06, Final residual = 7.74737e-09, No Iterations 18
DICPCG:  Solving for pcorr, Initial residual = 1, Final residual = 0.00760287, No Iterations 12
time step continuity errors : sum local = 7.12424e-12, global = 3.30087e-13, cumulative = -1.05789e-06
DILUPBiCG:  Solving for Ux, Initial residual = 0.00506459, Final residual = 2.12981e-07, No Iterations 2
DILUPBiCG:  Solving for Uy, Initial residual = 0.00426512, Final residual = 1.95285e-07, No Iterations 2
DILUPBiCG:  Solving for Uz, Initial residual = 0.0137549, Final residual = 6.0208e-07, No Iterations 2
DICPCG:  Solving for p, Initial residual = 0.0233216, Final residual = 0.00100127, No Iterations 4
time step continuity errors : sum local = 1.24319e-06, global = 3.61427e-11, cumulative = -1.05786e-06
DICPCG:  Solving for p, Initial residual = 0.00259802, Final residual = 7.51946e-07, No Iterations 59
time step continuity errors : sum local = 9.28365e-10, global = 2.77114e-11, cumulative = -1.05783e-06
ExecutionTime = 1.73 s  ClockTime = 1 s

Courant Number mean: 0.0375502 max: 0.471903
Time = 7e-05

DICPCG:  Solving for cellMotionUx, Initial residual = 6.22586e-06, Final residual = 7.28615e-09, No Iterations 18
DICPCG:  Solving for pcorr, Initial residual = 1, Final residual = 0.00785146, No Iterations 12
time step continuity errors : sum local = 7.28903e-12, global = 3.65491e-13, cumulative = -1.05783e-06
DILUPBiCG:  Solving for Ux, Initial residual = 0.00493161, Final residual = 2.87649e-07, No Iterations 2
DILUPBiCG:  Solving for Uy, Initial residual = 0.00428854, Final residual = 1.90983e-07, No Iterations 2
DILUPBiCG:  Solving for Uz, Initial residual = 0.0137073, Final residual = 5.25364e-07, No Iterations 2
DICPCG:  Solving for p, Initial residual = 0.0217902, Final residual = 0.0010056, No Iterations 4
time step continuity errors : sum local = 1.22369e-06, global = 2.04778e-10, cumulative = -1.05762e-06
DICPCG:  Solving for p, Initial residual = 0.00251501, Final residual = 7.5682e-07, No Iterations 59
time step continuity errors : sum local = 9.16465e-10, global = 2.72474e-11, cumulative = -1.0576e-06
ExecutionTime = 1.84 s  ClockTime = 1 s

Courant Number mean: 0.0375733 max: 0.475533
Time = 7.5e-05

DICPCG:  Solving for cellMotionUx, Initial residual = 6.15838e-06, Final residual = 7.46582e-09, No Iterations 18
DICPCG:  Solving for pcorr, Initial residual = 1, Final residual = 0.00810153, No Iterations 12
time step continuity errors : sum local = 7.42477e-12, global = 4.086e-13, cumulative = -1.0576e-06
DILUPBiCG:  Solving for Ux, Initial residual = 0.00481803, Final residual = 4.59041e-07, No Iterations 2
DILUPBiCG:  Solving for Uy, Initial residual = 0.00431373, Final residual = 1.84146e-07, No Iterations 2
DILUPBiCG:  Solving for Uz, Initial residual = 0.0135277, Final residual = 3.44386e-07, No Iterations 2
DICPCG:  Solving for p, Initial residual = 0.0205036, Final residual = 0.00101934, No Iterations 4
time step continuity errors : sum local = 1.218e-06, global = 1.49407e-10, cumulative = -1.05745e-06
DICPCG:  Solving for p, Initial residual = 0.00245256, Final residual = 7.65182e-07, No Iterations 59
time step continuity errors : sum local = 9.10565e-10, global = 2.74116e-11, cumulative = -1.05742e-06
ExecutionTime = 1.94 s  ClockTime = 2 s

Courant Number mean: 0.0376001 max: 0.478066
Time = 8e-05

DICPCG:  Solving for cellMotionUx, Initial residual = 6.09166e-06, Final residual = 7.25375e-09, No Iterations 18
DICPCG:  Solving for pcorr, Initial residual = 1, Final residual = 0.00833826, No Iterations 12
time step continuity errors : sum local = 7.59253e-12, global = 5.2785e-13, cumulative = -1.05742e-06
DILUPBiCG:  Solving for Ux, Initial residual = 0.00470218, Final residual = 3.2932e-06, No Iterations 2
DILUPBiCG:  Solving for Uy, Initial residual = 0.00433423, Final residual = 1.76359e-07, No Iterations 2
DILUPBiCG:  Solving for Uz, Initial residual = 0.0128424, Final residual = 1.23095e-06, No Iterations 2
DICPCG:  Solving for p, Initial residual = 0.019305, Final residual = 0.00080144, No Iterations 5
time step continuity errors : sum local = 9.42419e-07, global = 1.10668e-09, cumulative = -1.05631e-06
DICPCG:  Solving for p, Initial residual = 0.00228112, Final residual = 8.73912e-07, No Iterations 58
time step continuity errors : sum local = 1.0245e-09, global = 3.14988e-11, cumulative = -1.05628e-06
ExecutionTime = 2.05 s  ClockTime = 2 s

Courant Number mean: 0.0376296 max: 0.479633
Time = 8.5e-05

DICPCG:  Solving for cellMotionUx, Initial residual = 6.02551e-06, Final residual = 6.7718e-09, No Iterations 18
DICPCG:  Solving for pcorr, Initial residual = 1, Final residual = 0.00965177, No Iterations 12
time step continuity errors : sum local = 9.88824e-12, global = -4.63233e-13, cumulative = -1.05628e-06
DILUPBiCG:  Solving for Ux, Initial residual = 0.00461214, Final residual = 2.56635e-07, No Iterations 2
DILUPBiCG:  Solving for Uy, Initial residual = 0.00434905, Final residual = 1.65725e-07, No Iterations 2
DILUPBiCG:  Solving for Uz, Initial residual = 0.0131401, Final residual = 7.8541e-07, No Iterations 2
DICPCG:  Solving for p, Initial residual = 0.0180535, Final residual = 0.000819655, No Iterations 5
time step continuity errors : sum local = 9.50783e-07, global = 1.10518e-09, cumulative = -1.05518e-06
DICPCG:  Solving for p, Initial residual = 0.00226737, Final residual = 8.82829e-07, No Iterations 58
time step continuity errors : sum local = 1.02235e-09, global = 3.04724e-11, cumulative = -1.05514e-06
ExecutionTime = 2.16 s  ClockTime = 2 s

Courant Number mean: 0.0376626 max: 0.48038
Time = 9e-05

DICPCG:  Solving for cellMotionUx, Initial residual = 5.95972e-06, Final residual = 7.23145e-09, No Iterations 18
DICPCG:  Solving for pcorr, Initial residual = 1, Final residual = 0.00918766, No Iterations 12
time step continuity errors : sum local = 9.39305e-12, global = -2.63952e-13, cumulative = -1.05515e-06
DILUPBiCG:  Solving for Ux, Initial residual = 0.00454391, Final residual = 9.22402e-08, No Iterations 2
DILUPBiCG:  Solving for Uy, Initial residual = 0.00435315, Final residual = 1.53236e-07, No Iterations 2
DILUPBiCG:  Solving for Uz, Initial residual = 0.0126652, Final residual = 1.69451e-07, No Iterations 2
DICPCG:  Solving for p, Initial residual = 0.0168739, Final residual = 0.000810185, No Iterations 5
time step continuity errors : sum local = 9.28976e-07, global = 1.15487e-09, cumulative = -1.05399e-06
DICPCG:  Solving for p, Initial residual = 0.0022252, Final residual = 8.62539e-07, No Iterations 58
time step continuity errors : sum local = 9.87673e-10, global = 2.53435e-11, cumulative = -1.05396e-06
ExecutionTime = 2.26 s  ClockTime = 2 s

Courant Number mean: 0.037699 max: 0.480451
Time = 9.5e-05

DICPCG:  Solving for cellMotionUx, Initial residual = 5.8948e-06, Final residual = 6.94289e-09, No Iterations 18
DICPCG:  Solving for pcorr, Initial residual = 1, Final residual = 0.00816637, No Iterations 12
time step continuity errors : sum local = 8.0657e-12, global = 1.54698e-13, cumulative = -1.05396e-06
DILUPBiCG:  Solving for Ux, Initial residual = 0.00448502, Final residual = 1.33585e-07, No Iterations 2
DILUPBiCG:  Solving for Uy, Initial residual = 0.00434645, Final residual = 1.40337e-07, No Iterations 2
DILUPBiCG:  Solving for Uz, Initial residual = 0.0119772, Final residual = 1.10481e-07, No Iterations 2
DICPCG:  Solving for p, Initial residual = 0.0158989, Final residual = 0.000696466, No Iterations 6
time step continuity errors : sum local = 7.90223e-07, global = 1.23046e-09, cumulative = -1.05273e-06
DICPCG:  Solving for p, Initial residual = 0.00212059, Final residual = 8.8213e-07, No Iterations 58
time step continuity errors : sum local = 9.99506e-10, global = 2.61363e-11, cumulative = -1.05271e-06
ExecutionTime = 2.37 s  ClockTime = 2 s

Courant Number mean: 0.0377385 max: 0.480457
Time = 0.0001

DICPCG:  Solving for cellMotionUx, Initial residual = 5.83024e-06, Final residual = 6.99596e-09, No Iterations 18
DICPCG:  Solving for pcorr, Initial residual = 1, Final residual = 0.00798342, No Iterations 12
time step continuity errors : sum local = 7.97947e-12, global = 2.35707e-13, cumulative = -1.05271e-06
DILUPBiCG:  Solving for Ux, Initial residual = 0.00443103, Final residual = 1.59513e-07, No Iterations 2
DILUPBiCG:  Solving for Uy, Initial residual = 0.00433889, Final residual = 1.46307e-07, No Iterations 2
DILUPBiCG:  Solving for Uz, Initial residual = 0.0123762, Final residual = 2.11485e-07, No Iterations 2
DICPCG:  Solving for p, Initial residual = 0.0151451, Final residual = 0.000704164, No Iterations 6
time step continuity errors : sum local = 7.91268e-07, global = 1.17821e-09, cumulative = -1.05153e-06
DICPCG:  Solving for p, Initial residual = 0.00206257, Final residual = 9.15574e-07, No Iterations 58
time step continuity errors : sum local = 1.02775e-09, global = 2.9291e-11, cumulative = -1.0515e-06
ExecutionTime = 2.49 s  ClockTime = 2 s

Courant Number mean: 0.0377814 max: 0.481421
Time = 0.000105

DICPCG:  Solving for cellMotionUx, Initial residual = 5.76629e-06, Final residual = 6.87801e-09, No Iterations 18
DICPCG:  Solving for pcorr, Initial residual = 1, Final residual = 0.00854492, No Iterations 12
time step continuity errors : sum local = 8.78202e-12, global = 2.40454e-13, cumulative = -1.0515e-06
DILUPBiCG:  Solving for Ux, Initial residual = 0.00437326, Final residual = 1.69668e-07, No Iterations 2
DILUPBiCG:  Solving for Uy, Initial residual = 0.00432344, Final residual = 1.90888e-07, No Iterations 2
DILUPBiCG:  Solving for Uz, Initial residual = 0.0120306, Final residual = 2.21033e-07, No Iterations 2
DICPCG:  Solving for p, Initial residual = 0.014368, Final residual = 0.000692629, No Iterations 6
time step continuity errors : sum local = 7.71511e-07, global = 1.21361e-09, cumulative = -1.05029e-06
DICPCG:  Solving for p, Initial residual = 0.00198491, Final residual = 8.9163e-07, No Iterations 58
time step continuity errors : sum local = 9.92621e-10, global = 3.02717e-11, cumulative = -1.05026e-06
ExecutionTime = 2.59 s  ClockTime = 2 s

Courant Number mean: 0.0378471 max: 0.481751
Time = 0.00011

DICPCG:  Solving for cellMotionUx, Initial residual = 5.70271e-06, Final residual = 6.90918e-09, No Iterations 18
DICPCG:  Solving for pcorr, Initial residual = 1, Final residual = 0.00805739, No Iterations 12
time step continuity errors : sum local = 7.99793e-12, global = 2.29666e-13, cumulative = -1.05026e-06
DILUPBiCG:  Solving for Ux, Initial residual = 0.00431405, Final residual = 1.66022e-07, No Iterations 2
DILUPBiCG:  Solving for Uy, Initial residual = 0.00430508, Final residual = 2.80625e-07, No Iterations 2
DILUPBiCG:  Solving for Uz, Initial residual = 0.0113594, Final residual = 2.29379e-07, No Iterations 2
DICPCG:  Solving for p, Initial residual = 0.0135346, Final residual = 0.000590639, No Iterations 7
time step continuity errors : sum local = 6.52893e-07, global = 1.31878e-09, cumulative = -1.04894e-06
DICPCG:  Solving for p, Initial residual = 0.00185903, Final residual = 7.86337e-07, No Iterations 57
time step continuity errors : sum local = 8.69236e-10, global = 7.86007e-12, cumulative = -1.04893e-06
ExecutionTime = 2.7 s  ClockTime = 2 s

Courant Number mean: 0.0379193 max: 0.481586
Time = 0.000115

DICPCG:  Solving for cellMotionUx, Initial residual = 5.63968e-06, Final residual = 6.90036e-09, No Iterations 18
DICPCG:  Solving for pcorr, Initial residual = 1, Final residual = 0.00732874, No Iterations 12
time step continuity errors : sum local = 6.3704e-12, global = -2.93501e-14, cumulative = -1.04893e-06
DILUPBiCG:  Solving for Ux, Initial residual = 0.00426193, Final residual = 1.39846e-07, No Iterations 2
DILUPBiCG:  Solving for Uy, Initial residual = 0.00428347, Final residual = 4.81436e-07, No Iterations 2
DILUPBiCG:  Solving for Uz, Initial residual = 0.0116987, Final residual = 1.84586e-07, No Iterations 2
DICPCG:  Solving for p, Initial residual = 0.0127885, Final residual = 0.000595631, No Iterations 7
time step continuity errors : sum local = 6.54016e-07, global = 1.21453e-09, cumulative = -1.04771e-06
DICPCG:  Solving for p, Initial residual = 0.00180912, Final residual = 9.43373e-07, No Iterations 57
time step continuity errors : sum local = 1.03648e-09, global = 2.20664e-12, cumulative = -1.04771e-06
ExecutionTime = 2.82 s  ClockTime = 2 s

Courant Number mean: 0.0379956 max: 0.481047
Time = 0.00012

DICPCG:  Solving for cellMotionUx, Initial residual = 5.57709e-06, Final residual = 6.9019e-09, No Iterations 18
DICPCG:  Solving for pcorr, Initial residual = 1, Final residual = 0.00906129, No Iterations 12
time step continuity errors : sum local = 9.39183e-12, global = 7.00491e-14, cumulative = -1.04771e-06
DILUPBiCG:  Solving for Ux, Initial residual = 0.00421275, Final residual = 1.68029e-07, No Iterations 2
DILUPBiCG:  Solving for Uy, Initial residual = 0.00424736, Final residual = 1.26647e-06, No Iterations 2
DILUPBiCG:  Solving for Uz, Initial residual = 0.0117967, Final residual = 2.10863e-07, No Iterations 2
DICPCG:  Solving for p, Initial residual = 0.0121168, Final residual = 0.000589671, No Iterations 7
time step continuity errors : sum local = 6.43693e-07, global = 1.23766e-09, cumulative = -1.04647e-06
DICPCG:  Solving for p, Initial residual = 0.00174871, Final residual = 9.52145e-07, No Iterations 57
time step continuity errors : sum local = 1.04009e-09, global = 3.50442e-12, cumulative = -1.04647e-06
ExecutionTime = 2.93 s  ClockTime = 3 s

Courant Number mean: 0.0380703 max: 0.480234
Time = 0.000125

DICPCG:  Solving for cellMotionUx, Initial residual = 5.51494e-06, Final residual = 6.90445e-09, No Iterations 18
DICPCG:  Solving for pcorr, Initial residual = 1, Final residual = 0.00880536, No Iterations 12
time step continuity errors : sum local = 9.15841e-12, global = -7.19659e-14, cumulative = -1.04647e-06
DILUPBiCG:  Solving for Ux, Initial residual = 0.00416751, Final residual = 3.70755e-07, No Iterations 2
DILUPBiCG:  Solving for Uy, Initial residual = 0.00419567, Final residual = 1.92075e-06, No Iterations 2
DILUPBiCG:  Solving for Uz, Initial residual = 0.0115692, Final residual = 2.23704e-07, No Iterations 2
DICPCG:  Solving for p, Initial residual = 0.0115002, Final residual = 0.000504604, No Iterations 8
time step continuity errors : sum local = 5.47648e-07, global = 2.18189e-09, cumulative = -1.04429e-06
DICPCG:  Solving for p, Initial residual = 0.00162475, Final residual = 9.32432e-07, No Iterations 58
time step continuity errors : sum local = 1.01269e-09, global = 3.64843e-11, cumulative = -1.04425e-06
ExecutionTime = 3.04 s  ClockTime = 3 s

Courant Number mean: 0.0381482 max: 0.479226
Time = 0.00013

DICPCG:  Solving for cellMotionUx, Initial residual = 5.45324e-06, Final residual = 6.90432e-09, No Iterations 18
DICPCG:  Solving for pcorr, Initial residual = 1, Final residual = 0.00743769, No Iterations 25
time step continuity errors : sum local = 7.53206e-12, global = 3.91342e-14, cumulative = -1.04425e-06
DILUPBiCG:  Solving for Ux, Initial residual = 0.00413281, Final residual = 8.47956e-07, No Iterations 2
DILUPBiCG:  Solving for Uy, Initial residual = 0.00414884, Final residual = 4.24747e-07, No Iterations 2
DILUPBiCG:  Solving for Uz, Initial residual = 0.0110558, Final residual = 2.42688e-07, No Iterations 2
DICPCG:  Solving for p, Initial residual = 0.0108971, Final residual = 0.000512654, No Iterations 8
time step continuity errors : sum local = 5.53116e-07, global = 2.12507e-09, cumulative = -1.04213e-06
DICPCG:  Solving for p, Initial residual = 0.00158409, Final residual = 9.26148e-07, No Iterations 58
time step continuity errors : sum local = 9.99886e-10, global = 3.85919e-11, cumulative = -1.04209e-06
ExecutionTime = 3.15 s  ClockTime = 3 s

Courant Number mean: 0.0382265 max: 0.478082
Time = 0.000135

DICPCG:  Solving for cellMotionUx, Initial residual = 5.39197e-06, Final residual = 6.91233e-09, No Iterations 18
DICPCG:  Solving for pcorr, Initial residual = 1, Final residual = 0.00766352, No Iterations 25
time step continuity errors : sum local = 7.66265e-12, global = 4.14229e-14, cumulative = -1.04209e-06
DILUPBiCG:  Solving for Ux, Initial residual = 0.00410199, Final residual = 2.30334e-06, No Iterations 2
DILUPBiCG:  Solving for Uy, Initial residual = 0.00417315, Final residual = 1.49625e-07, No Iterations 2
DILUPBiCG:  Solving for Uz, Initial residual = 0.0110092, Final residual = 2.42194e-07, No Iterations 2
DICPCG:  Solving for p, Initial residual = 0.0104351, Final residual = 0.000513594, No Iterations 8
time step continuity errors : sum local = 5.50881e-07, global = 2.15257e-09, cumulative = -1.03994e-06
DICPCG:  Solving for p, Initial residual = 0.00154962, Final residual = 9.13121e-07, No Iterations 58
time step continuity errors : sum local = 9.80018e-10, global = 4.32551e-11, cumulative = -1.03989e-06
ExecutionTime = 3.26 s  ClockTime = 3 s

Courant Number mean: 0.0383014 max: 0.476843
Time = 0.00014

DICPCG:  Solving for cellMotionUx, Initial residual = 5.33116e-06, Final residual = 6.92374e-09, No Iterations 18
DICPCG:  Solving for pcorr, Initial residual = 1, Final residual = 0.00942569, No Iterations 16
time step continuity errors : sum local = 9.23735e-12, global = 1.07591e-12, cumulative = -1.03989e-06
DILUPBiCG:  Solving for Ux, Initial residual = 0.00407383, Final residual = 1.92121e-09, No Iterations 3
DILUPBiCG:  Solving for Uy, Initial residual = 0.004203, Final residual = 6.86657e-08, No Iterations 2
DILUPBiCG:  Solving for Uz, Initial residual = 0.010866, Final residual = 2.53985e-07, No Iterations 2
DICPCG:  Solving for p, Initial residual = 0.0100688, Final residual = 0.000420813, No Iterations 9
time step continuity errors : sum local = 4.4873e-07, global = 2.38328e-09, cumulative = -1.03751e-06
DICPCG:  Solving for p, Initial residual = 0.00143311, Final residual = 7.22088e-07, No Iterations 56
time step continuity errors : sum local = 7.706e-10, global = -1.26148e-11, cumulative = -1.03752e-06
ExecutionTime = 3.37 s  ClockTime = 3 s

Courant Number mean: 0.0383725 max: 0.475535
Time = 0.000145

DICPCG:  Solving for cellMotionUx, Initial residual = 5.27081e-06, Final residual = 6.94623e-09, No Iterations 18
DICPCG:  Solving for pcorr, Initial residual = 1, Final residual = 0.00722784, No Iterations 15
time step continuity errors : sum local = 5.56977e-12, global = 2.49929e-13, cumulative = -1.03752e-06
DILUPBiCG:  Solving for Ux, Initial residual = 0.00404831, Final residual = 4.19944e-06, No Iterations 2
DILUPBiCG:  Solving for Uy, Initial residual = 0.00421996, Final residual = 1.33423e-07, No Iterations 2
DILUPBiCG:  Solving for Uz, Initial residual = 0.0109577, Final residual = 2.21068e-07, No Iterations 2
DICPCG:  Solving for p, Initial residual = 0.00992354, Final residual = 0.000426232, No Iterations 9
time step continuity errors : sum local = 4.51894e-07, global = 2.23165e-09, cumulative = -1.03529e-06
DICPCG:  Solving for p, Initial residual = 0.0014324, Final residual = 9.2242e-07, No Iterations 56
time step continuity errors : sum local = 9.78703e-10, global = -2.63923e-11, cumulative = -1.03532e-06
ExecutionTime = 3.48 s  ClockTime = 3 s

Courant Number mean: 0.038439 max: 0.474174
Time = 0.00015

DICPCG:  Solving for cellMotionUx, Initial residual = 5.21091e-06, Final residual = 6.97092e-09, No Iterations 18
DICPCG:  Solving for pcorr, Initial residual = 1, Final residual = 0.00965621, No Iterations 16
time step continuity errors : sum local = 9.45057e-12, global = 9.95411e-13, cumulative = -1.03532e-06
DILUPBiCG:  Solving for Ux, Initial residual = 0.00401901, Final residual = 2.36634e-06, No Iterations 2
DILUPBiCG:  Solving for Uy, Initial residual = 0.00423006, Final residual = 1.93586e-07, No Iterations 2
DILUPBiCG:  Solving for Uz, Initial residual = 0.0108045, Final residual = 2.53892e-07, No Iterations 2
DICPCG:  Solving for p, Initial residual = 0.00978256, Final residual = 0.000428387, No Iterations 9
time step continuity errors : sum local = 4.51589e-07, global = 2.26366e-09, cumulative = -1.03305e-06
DICPCG:  Solving for p, Initial residual = 0.00144542, Final residual = 9.40388e-07, No Iterations 56
time step continuity errors : sum local = 9.91991e-10, global = -2.62658e-11, cumulative = -1.03308e-06
ExecutionTime = 3.59 s  ClockTime = 3 s

Courant Number mean: 0.0385033 max: 0.472765
Time = 0.000155

DICPCG:  Solving for cellMotionUx, Initial residual = 5.15148e-06, Final residual = 6.99129e-09, No Iterations 18
DICPCG:  Solving for pcorr, Initial residual = 1, Final residual = 0.00955197, No Iterations 16
time step continuity errors : sum local = 9.47546e-12, global = 9.73226e-13, cumulative = -1.03308e-06
DILUPBiCG:  Solving for Ux, Initial residual = 0.00398942, Final residual = 1.63803e-06, No Iterations 2
DILUPBiCG:  Solving for Uy, Initial residual = 0.00421934, Final residual = 2.38452e-07, No Iterations 2
DILUPBiCG:  Solving for Uz, Initial residual = 0.010745, Final residual = 2.04442e-07, No Iterations 2
DICPCG:  Solving for p, Initial residual = 0.0096397, Final residual = 0.000429813, No Iterations 9
time step continuity errors : sum local = 4.50506e-07, global = 2.25754e-09, cumulative = -1.03082e-06
DICPCG:  Solving for p, Initial residual = 0.00147177, Final residual = 9.57668e-07, No Iterations 56
time step continuity errors : sum local = 1.00447e-09, global = -2.465e-11, cumulative = -1.03084e-06
ExecutionTime = 3.7 s  ClockTime = 3 s

Courant Number mean: 0.0385626 max: 0.471309
Time = 0.00016

DICPCG:  Solving for cellMotionUx, Initial residual = 5.09254e-06, Final residual = 7.00635e-09, No Iterations 18
DICPCG:  Solving for pcorr, Initial residual = 1, Final residual = 0.00846832, No Iterations 26
time step continuity errors : sum local = 8.5062e-12, global = 3.07905e-13, cumulative = -1.03084e-06
DILUPBiCG:  Solving for Ux, Initial residual = 0.00395375, Final residual = 1.06917e-06, No Iterations 2
DILUPBiCG:  Solving for Uy, Initial residual = 0.00418773, Final residual = 2.68179e-07, No Iterations 2
DILUPBiCG:  Solving for Uz, Initial residual = 0.010475, Final residual = 2.26394e-07, No Iterations 2
DICPCG:  Solving for p, Initial residual = 0.00950553, Final residual = 0.000430819, No Iterations 9
time step continuity errors : sum local = 4.49029e-07, global = 2.25521e-09, cumulative = -1.02859e-06
DICPCG:  Solving for p, Initial residual = 0.001495, Final residual = 8.45378e-07, No Iterations 47
time step continuity errors : sum local = 8.8168e-10, global = 2.84945e-11, cumulative = -1.02856e-06
ExecutionTime = 3.81 s  ClockTime = 3 s

Courant Number mean: 0.0386169 max: 0.469803
Time = 0.000165

DICPCG:  Solving for cellMotionUx, Initial residual = 5.03409e-06, Final residual = 7.01708e-09, No Iterations 18
DICPCG:  Solving for pcorr, Initial residual = 1, Final residual = 0.00880741, No Iterations 25
time step continuity errors : sum local = 7.76532e-12, global = -5.42947e-14, cumulative = -1.02856e-06
DILUPBiCG:  Solving for Ux, Initial residual = 0.00391593, Final residual = 4.50586e-07, No Iterations 2
DILUPBiCG:  Solving for Uy, Initial residual = 0.00414094, Final residual = 2.8242e-07, No Iterations 2
DILUPBiCG:  Solving for Uz, Initial residual = 0.0105617, Final residual = 9.97736e-06, No Iterations 1
DICPCG:  Solving for p, Initial residual = 0.00943757, Final residual = 0.000431116, No Iterations 9
time step continuity errors : sum local = 4.46856e-07, global = 2.21147e-09, cumulative = -1.02635e-06
DICPCG:  Solving for p, Initial residual = 0.00151793, Final residual = 7.47655e-07, No Iterations 57
time step continuity errors : sum local = 7.75422e-10, global = -1.73257e-11, cumulative = -1.02637e-06
ExecutionTime = 3.93 s  ClockTime = 4 s

Courant Number mean: 0.0386678 max: 0.468241
Time = 0.00017

DICPCG:  Solving for cellMotionUx, Initial residual = 4.97615e-06, Final residual = 7.02652e-09, No Iterations 18
DICPCG:  Solving for pcorr, Initial residual = 1, Final residual = 0.00825613, No Iterations 26
time step continuity errors : sum local = 6.40199e-12, global = 6.84817e-14, cumulative = -1.02637e-06
DILUPBiCG:  Solving for Ux, Initial residual = 0.00387736, Final residual = 7.74529e-06, No Iterations 1
DILUPBiCG:  Solving for Uy, Initial residual = 0.00408343, Final residual = 2.86384e-07, No Iterations 2
DILUPBiCG:  Solving for Uz, Initial residual = 0.0104956, Final residual = 9.56871e-06, No Iterations 1
DICPCG:  Solving for p, Initial residual = 0.00939788, Final residual = 0.000430044, No Iterations 9
time step continuity errors : sum local = 4.43346e-07, global = 2.26215e-09, cumulative = -1.0241e-06
DICPCG:  Solving for p, Initial residual = 0.00154573, Final residual = 7.50746e-07, No Iterations 57
time step continuity errors : sum local = 7.74441e-10, global = -1.35156e-11, cumulative = -1.02412e-06
ExecutionTime = 4.03 s  ClockTime = 4 s

Courant Number mean: 0.0387167 max: 0.466619
Time = 0.000175

DICPCG:  Solving for cellMotionUx, Initial residual = 4.91872e-06, Final residual = 7.04038e-09, No Iterations 18
DICPCG:  Solving for pcorr, Initial residual = 1, Final residual = 0.00712756, No Iterations 16
time step continuity errors : sum local = 5.51987e-12, global = -5.7695e-13, cumulative = -1.02412e-06
DILUPBiCG:  Solving for Ux, Initial residual = 0.00383908, Final residual = 1.27008e-07, No Iterations 2
DILUPBiCG:  Solving for Uy, Initial residual = 0.0040191, Final residual = 2.8565e-07, No Iterations 2
DILUPBiCG:  Solving for Uz, Initial residual = 0.0104928, Final residual = 9.34927e-06, No Iterations 1
DICPCG:  Solving for p, Initial residual = 0.00937617, Final residual = 0.000434327, No Iterations 9
time step continuity errors : sum local = 4.45517e-07, global = 2.24643e-09, cumulative = -1.02187e-06
DICPCG:  Solving for p, Initial residual = 0.0015762, Final residual = 9.79231e-07, No Iterations 56
time step continuity errors : sum local = 1.00522e-09, global = -2.55814e-11, cumulative = -1.0219e-06
ExecutionTime = 4.15 s  ClockTime = 4 s

Courant Number mean: 0.038761 max: 0.464933
Time = 0.00018

DICPCG:  Solving for cellMotionUx, Initial residual = 4.86183e-06, Final residual = 7.05105e-09, No Iterations 18
DICPCG:  Solving for pcorr, Initial residual = 1, Final residual = 0.00809716, No Iterations 15
time step continuity errors : sum local = 8.13939e-12, global = -6.41114e-13, cumulative = -1.0219e-06
DILUPBiCG:  Solving for Ux, Initial residual = 0.00380228, Final residual = 1.06277e-08, No Iterations 3
DILUPBiCG:  Solving for Uy, Initial residual = 0.00398927, Final residual = 2.86359e-07, No Iterations 2
DILUPBiCG:  Solving for Uz, Initial residual = 0.0101346, Final residual = 9.47189e-06, No Iterations 1
DICPCG:  Solving for p, Initial residual = 0.0093412, Final residual = 0.000437505, No Iterations 9
time step continuity errors : sum local = 4.467e-07, global = 2.23217e-09, cumulative = -1.01967e-06
DICPCG:  Solving for p, Initial residual = 0.00160424, Final residual = 8.69039e-07, No Iterations 56
time step continuity errors : sum local = 8.88166e-10, global = -2.75815e-11, cumulative = -1.01969e-06
ExecutionTime = 4.26 s  ClockTime = 4 s

Courant Number mean: 0.0387994 max: 0.463182
Time = 0.000185

DICPCG:  Solving for cellMotionUx, Initial residual = 4.80543e-06, Final residual = 7.06347e-09, No Iterations 18
DICPCG:  Solving for pcorr, Initial residual = 1, Final residual = 0.00706048, No Iterations 15
time step continuity errors : sum local = 6.27088e-12, global = -3.43944e-13, cumulative = -1.01969e-06
DILUPBiCG:  Solving for Ux, Initial residual = 0.00377256, Final residual = 2.04173e-06, No Iterations 2
DILUPBiCG:  Solving for Uy, Initial residual = 0.00395823, Final residual = 2.92322e-07, No Iterations 2
DILUPBiCG:  Solving for Uz, Initial residual = 0.0101476, Final residual = 9.57317e-06, No Iterations 1
DICPCG:  Solving for p, Initial residual = 0.00929516, Final residual = 0.000439272, No Iterations 9
time step continuity errors : sum local = 4.46682e-07, global = 2.21821e-09, cumulative = -1.01748e-06
DICPCG:  Solving for p, Initial residual = 0.00162095, Final residual = 7.79672e-07, No Iterations 55
time step continuity errors : sum local = 7.93636e-10, global = -5.47091e-11, cumulative = -1.01753e-06
ExecutionTime = 4.37 s  ClockTime = 4 s

Courant Number mean: 0.0388314 max: 0.461366
Time = 0.00019

DICPCG:  Solving for cellMotionUx, Initial residual = 4.74954e-06, Final residual = 7.07851e-09, No Iterations 18
DICPCG:  Solving for pcorr, Initial residual = 1, Final residual = 0.00933568, No Iterations 14
time step continuity errors : sum local = 7.40914e-12, global = -2.11526e-13, cumulative = -1.01753e-06
DILUPBiCG:  Solving for Ux, Initial residual = 0.00375323, Final residual = 1.18578e-06, No Iterations 2
DILUPBiCG:  Solving for Uy, Initial residual = 0.00391663, Final residual = 3.05323e-07, No Iterations 2
DILUPBiCG:  Solving for Uz, Initial residual = 0.0101472, Final residual = 8.85936e-06, No Iterations 1
DICPCG:  Solving for p, Initial residual = 0.00924853, Final residual = 0.000438868, No Iterations 9
time step continuity errors : sum local = 4.44589e-07, global = 2.19635e-09, cumulative = -1.01533e-06
DICPCG:  Solving for p, Initial residual = 0.00162772, Final residual = 9.34834e-07, No Iterations 54
time step continuity errors : sum local = 9.48071e-10, global = -1.62717e-11, cumulative = -1.01535e-06
ExecutionTime = 4.47 s  ClockTime = 4 s

Courant Number mean: 0.0388599 max: 0.459489
Time = 0.000195

DICPCG:  Solving for cellMotionUx, Initial residual = 4.6942e-06, Final residual = 7.09088e-09, No Iterations 18
DICPCG:  Solving for pcorr, Initial residual = 1, Final residual = 0.00876791, No Iterations 15
time step continuity errors : sum local = 8.31259e-12, global = -5.66109e-13, cumulative = -1.01535e-06
DILUPBiCG:  Solving for Ux, Initial residual = 0.00373288, Final residual = 8.06789e-07, No Iterations 2
DILUPBiCG:  Solving for Uy, Initial residual = 0.00386158, Final residual = 3.21572e-07, No Iterations 2
DILUPBiCG:  Solving for Uz, Initial residual = 0.00998842, Final residual = 9.50671e-06, No Iterations 1
DICPCG:  Solving for p, Initial residual = 0.00922713, Final residual = 0.000435997, No Iterations 9
time step continuity errors : sum local = 4.40345e-07, global = 2.18123e-09, cumulative = -1.01317e-06
DICPCG:  Solving for p, Initial residual = 0.00161739, Final residual = 7.26743e-07, No Iterations 56
time step continuity errors : sum local = 7.35177e-10, global = 2.99549e-11, cumulative = -1.01314e-06
ExecutionTime = 4.58 s  ClockTime = 4 s

Courant Number mean: 0.0388847 max: 0.457554
Time = 0.0002

DICPCG:  Solving for cellMotionUx, Initial residual = 4.6395e-06, Final residual = 7.10104e-09, No Iterations 18
DICPCG:  Solving for pcorr, Initial residual = 1, Final residual = 0.00974028, No Iterations 15
time step continuity errors : sum local = 7.16083e-12, global = -1.30444e-13, cumulative = -1.01314e-06
DILUPBiCG:  Solving for Ux, Initial residual = 0.00371906, Final residual = 5.74785e-07, No Iterations 2
DILUPBiCG:  Solving for Uy, Initial residual = 0.00382396, Final residual = 3.396e-07, No Iterations 2
DILUPBiCG:  Solving for Uz, Initial residual = 0.0100724, Final residual = 8.83713e-06, No Iterations 1
DICPCG:  Solving for p, Initial residual = 0.00916691, Final residual = 0.000430581, No Iterations 9
time step continuity errors : sum local = 4.33955e-07, global = 2.14747e-09, cumulative = -1.01099e-06
DICPCG:  Solving for p, Initial residual = 0.00160331, Final residual = 9.47389e-07, No Iterations 56
time step continuity errors : sum local = 9.56625e-10, global = 2.32725e-11, cumulative = -1.01097e-06
ExecutionTime = 4.7 s  ClockTime = 4 s

Courant Number mean: 0.0389056 max: 0.455571
Time = 0.000205

DICPCG:  Solving for cellMotionUx, Initial residual = 4.58541e-06, Final residual = 7.11013e-09, No Iterations 18
DICPCG:  Solving for pcorr, Initial residual = 1, Final residual = 0.00778541, No Iterations 15
time step continuity errors : sum local = 7.44772e-12, global = 8.8108e-14, cumulative = -1.01097e-06
DILUPBiCG:  Solving for Ux, Initial residual = 0.0037014, Final residual = 4.19207e-07, No Iterations 2
DILUPBiCG:  Solving for Uy, Initial residual = 0.00380063, Final residual = 3.57094e-07, No Iterations 2
DILUPBiCG:  Solving for Uz, Initial residual = 0.00999441, Final residual = 9.39161e-06, No Iterations 1
DICPCG:  Solving for p, Initial residual = 0.00908408, Final residual = 0.000423628, No Iterations 9
time step continuity errors : sum local = 4.26196e-07, global = 2.1067e-09, cumulative = -1.00886e-06
DICPCG:  Solving for p, Initial residual = 0.00159459, Final residual = 6.00374e-07, No Iterations 57
time step continuity errors : sum local = 6.05149e-10, global = 8.77116e-12, cumulative = -1.00885e-06
ExecutionTime = 4.81 s  ClockTime = 4 s

Courant Number mean: 0.0389206 max: 0.453549
Time = 0.00021

DICPCG:  Solving for cellMotionUx, Initial residual = 4.53188e-06, Final residual = 7.11639e-09, No Iterations 18
DICPCG:  Solving for pcorr, Initial residual = 1, Final residual = 0.00809573, No Iterations 14
time step continuity errors : sum local = 4.89913e-12, global = -3.329e-15, cumulative = -1.00885e-06
DILUPBiCG:  Solving for Ux, Initial residual = 0.00367596, Final residual = 3.11194e-07, No Iterations 2
DILUPBiCG:  Solving for Uy, Initial residual = 0.00380406, Final residual = 3.73267e-07, No Iterations 2
DILUPBiCG:  Solving for Uz, Initial residual = 0.0101779, Final residual = 8.52922e-06, No Iterations 1
DICPCG:  Solving for p, Initial residual = 0.00899189, Final residual = 0.000416145, No Iterations 9
time step continuity errors : sum local = 4.17871e-07, global = 2.06187e-09, cumulative = -1.00679e-06
DICPCG:  Solving for p, Initial residual = 0.0015767, Final residual = 6.07826e-07, No Iterations 57
time step continuity errors : sum local = 6.11362e-10, global = 1.10752e-11, cumulative = -1.00678e-06
ExecutionTime = 4.92 s  ClockTime = 5 s

Courant Number mean: 0.0389323 max: 0.451499
Time = 0.000215

DICPCG:  Solving for cellMotionUx, Initial residual = 4.47891e-06, Final residual = 7.11933e-09, No Iterations 18
DICPCG:  Solving for pcorr, Initial residual = 1, Final residual = 0.00719705, No Iterations 14
time step continuity errors : sum local = 4.4e-12, global = -4.70507e-14, cumulative = -1.00678e-06
DILUPBiCG:  Solving for Ux, Initial residual = 0.00364392, Final residual = 2.34977e-07, No Iterations 2
DILUPBiCG:  Solving for Uy, Initial residual = 0.00381878, Final residual = 3.88224e-07, No Iterations 2
DILUPBiCG:  Solving for Uz, Initial residual = 0.00999926, Final residual = 8.48415e-06, No Iterations 1
DICPCG:  Solving for p, Initial residual = 0.00894763, Final residual = 0.00040809, No Iterations 9
time step continuity errors : sum local = 4.08868e-07, global = 2.02451e-09, cumulative = -1.00476e-06
DICPCG:  Solving for p, Initial residual = 0.0015507, Final residual = 7.23145e-07, No Iterations 57
time step continuity errors : sum local = 7.25575e-10, global = 1.8661e-11, cumulative = -1.00474e-06
ExecutionTime = 5.03 s  ClockTime = 5 s

Courant Number mean: 0.0389389 max: 0.449434
Time = 0.00022

DICPCG:  Solving for cellMotionUx, Initial residual = 4.42649e-06, Final residual = 7.12034e-09, No Iterations 18
DICPCG:  Solving for pcorr, Initial residual = 1, Final residual = 0.00763152, No Iterations 14
time step continuity errors : sum local = 5.53724e-12, global = 8.48902e-14, cumulative = -1.00474e-06
DILUPBiCG:  Solving for Ux, Initial residual = 0.00361424, Final residual = 1.81297e-07, No Iterations 2
DILUPBiCG:  Solving for Uy, Initial residual = 0.00382371, Final residual = 4.01856e-07, No Iterations 2
DILUPBiCG:  Solving for Uz, Initial residual = 0.00983671, Final residual = 7.93929e-06, No Iterations 1
DICPCG:  Solving for p, Initial residual = 0.00891122, Final residual = 0.000400135, No Iterations 9
time step continuity errors : sum local = 3.99968e-07, global = 1.98291e-09, cumulative = -1.00275e-06
DICPCG:  Solving for p, Initial residual = 0.00152313, Final residual = 9.02947e-07, No Iterations 57
time step continuity errors : sum local = 9.03931e-10, global = 2.4424e-11, cumulative = -1.00273e-06
ExecutionTime = 5.13 s  ClockTime = 5 s

Courant Number mean: 0.0389407 max: 0.447367
Time = 0.000225

DICPCG:  Solving for cellMotionUx, Initial residual = 4.37467e-06, Final residual = 7.12371e-09, No Iterations 18
DICPCG:  Solving for pcorr, Initial residual = 1, Final residual = 0.00956523, No Iterations 15
time step continuity errors : sum local = 8.64631e-12, global = -7.70151e-14, cumulative = -1.00273e-06
DILUPBiCG:  Solving for Ux, Initial residual = 0.00359173, Final residual = 1.45198e-07, No Iterations 2
DILUPBiCG:  Solving for Uy, Initial residual = 0.00382109, Final residual = 4.12873e-07, No Iterations 2
DILUPBiCG:  Solving for Uz, Initial residual = 0.00995571, Final residual = 8.49928e-06, No Iterations 1
DICPCG:  Solving for p, Initial residual = 0.00883146, Final residual = 0.00039204, No Iterations 9
time step continuity errors : sum local = 3.90947e-07, global = 1.93859e-09, cumulative = -1.00079e-06
DICPCG:  Solving for p, Initial residual = 0.00149392, Final residual = 8.29659e-07, No Iterations 58
time step continuity errors : sum local = 8.28448e-10, global = 1.89535e-11, cumulative = -1.00077e-06
ExecutionTime = 5.24 s  ClockTime = 5 s

Courant Number mean: 0.0389382 max: 0.445312
Time = 0.00023

DICPCG:  Solving for cellMotionUx, Initial residual = 4.32343e-06, Final residual = 7.12685e-09, No Iterations 18
DICPCG:  Solving for pcorr, Initial residual = 1, Final residual = 0.0096393, No Iterations 15
time step continuity errors : sum local = 7.98566e-12, global = -1.1181e-13, cumulative = -1.00077e-06
DILUPBiCG:  Solving for Ux, Initial residual = 0.00357188, Final residual = 1.29248e-07, No Iterations 2
DILUPBiCG:  Solving for Uy, Initial residual = 0.00380899, Final residual = 4.21717e-07, No Iterations 2
DILUPBiCG:  Solving for Uz, Initial residual = 0.0098568, Final residual = 7.81009e-06, No Iterations 1
DICPCG:  Solving for p, Initial residual = 0.00871971, Final residual = 0.000383798, No Iterations 9
time step continuity errors : sum local = 3.8175e-07, global = 1.88828e-09, cumulative = -9.98884e-07
DICPCG:  Solving for p, Initial residual = 0.00146013, Final residual = 9.50115e-07, No Iterations 58
time step continuity errors : sum local = 9.46189e-10, global = 1.52519e-11, cumulative = -9.98869e-07
ExecutionTime = 5.35 s  ClockTime = 5 s

Courant Number mean: 0.0389331 max: 0.443282
Time = 0.000235

DICPCG:  Solving for cellMotionUx, Initial residual = 4.27275e-06, Final residual = 7.12889e-09, No Iterations 18
DICPCG:  Solving for pcorr, Initial residual = 1, Final residual = 0.00975777, No Iterations 15
time step continuity errors : sum local = 9.2327e-12, global = -1.77692e-13, cumulative = -9.98869e-07
DILUPBiCG:  Solving for Ux, Initial residual = 0.00355535, Final residual = 1.32977e-07, No Iterations 2
DILUPBiCG:  Solving for Uy, Initial residual = 0.00379177, Final residual = 4.2797e-07, No Iterations 2
DILUPBiCG:  Solving for Uz, Initial residual = 0.00967356, Final residual = 8.63817e-06, No Iterations 1
DICPCG:  Solving for p, Initial residual = 0.00855883, Final residual = 0.000376222, No Iterations 9
time step continuity errors : sum local = 3.73168e-07, global = 1.8423e-09, cumulative = -9.97027e-07
DICPCG:  Solving for p, Initial residual = 0.00142343, Final residual = 7.138e-07, No Iterations 59
time step continuity errors : sum local = 7.0873e-10, global = 7.85266e-12, cumulative = -9.97019e-07
ExecutionTime = 5.46 s  ClockTime = 5 s

Courant Number mean: 0.0389252 max: 0.441291
Time = 0.00024

DICPCG:  Solving for cellMotionUx, Initial residual = 4.22267e-06, Final residual = 7.12898e-09, No Iterations 18
DICPCG:  Solving for pcorr, Initial residual = 1, Final residual = 0.00899536, No Iterations 15
time step continuity errors : sum local = 6.37528e-12, global = -4.12172e-14, cumulative = -9.97019e-07
DILUPBiCG:  Solving for Ux, Initial residual = 0.00353265, Final residual = 1.42592e-07, No Iterations 2
DILUPBiCG:  Solving for Uy, Initial residual = 0.00377716, Final residual = 4.32059e-07, No Iterations 2
DILUPBiCG:  Solving for Uz, Initial residual = 0.00981974, Final residual = 7.83008e-06, No Iterations 1
DICPCG:  Solving for p, Initial residual = 0.00840878, Final residual = 0.000369953, No Iterations 9
time step continuity errors : sum local = 3.65791e-07, global = 1.79275e-09, cumulative = -9.95226e-07
DICPCG:  Solving for p, Initial residual = 0.00138718, Final residual = 6.85396e-07, No Iterations 59
time step continuity errors : sum local = 6.78207e-10, global = 4.80434e-12, cumulative = -9.95221e-07
ExecutionTime = 5.57 s  ClockTime = 5 s

Courant Number mean: 0.038914 max: 0.439351
Time = 0.000245

DICPCG:  Solving for cellMotionUx, Initial residual = 4.17316e-06, Final residual = 7.1286e-09, No Iterations 18
DICPCG:  Solving for pcorr, Initial residual = 1, Final residual = 0.00866921, No Iterations 15
time step continuity errors : sum local = 5.87952e-12, global = -4.55772e-14, cumulative = -9.95221e-07
DILUPBiCG:  Solving for Ux, Initial residual = 0.00350815, Final residual = 1.53977e-07, No Iterations 2
DILUPBiCG:  Solving for Uy, Initial residual = 0.00375227, Final residual = 4.32847e-07, No Iterations 2
DILUPBiCG:  Solving for Uz, Initial residual = 0.00990923, Final residual = 8.2396e-06, No Iterations 1
DICPCG:  Solving for p, Initial residual = 0.00827985, Final residual = 0.000365077, No Iterations 9
time step continuity errors : sum local = 3.59698e-07, global = 1.74986e-09, cumulative = -9.93471e-07
DICPCG:  Solving for p, Initial residual = 0.00134796, Final residual = 9.85757e-07, No Iterations 58
time step continuity errors : sum local = 9.71771e-10, global = 3.10753e-12, cumulative = -9.93468e-07
ExecutionTime = 5.67 s  ClockTime = 5 s

Courant Number mean: 0.0389053 max: 0.437474
Time = 0.00025

DICPCG:  Solving for cellMotionUx, Initial residual = 4.12425e-06, Final residual = 7.12926e-09, No Iterations 18
DICPCG:  Solving for pcorr, Initial residual = 1, Final residual = 0.00866318, No Iterations 15
time step continuity errors : sum local = 8.41863e-12, global = -1.4997e-13, cumulative = -9.93469e-07
DILUPBiCG:  Solving for Ux, Initial residual = 0.00348536, Final residual = 1.64847e-07, No Iterations 2
DILUPBiCG:  Solving for Uy, Initial residual = 0.00371631, Final residual = 4.30413e-07, No Iterations 2
DILUPBiCG:  Solving for Uz, Initial residual = 0.0097139, Final residual = 7.86268e-06, No Iterations 1
DICPCG:  Solving for p, Initial residual = 0.00813029, Final residual = 0.000360583, No Iterations 9
time step continuity errors : sum local = 3.53871e-07, global = 1.71094e-09, cumulative = -9.91758e-07
DICPCG:  Solving for p, Initial residual = 0.00131098, Final residual = 9.71475e-07, No Iterations 58
time step continuity errors : sum local = 9.53618e-10, global = 5.30523e-12, cumulative = -9.91752e-07
ExecutionTime = 5.78 s  ClockTime = 5 s

Courant Number mean: 0.038895 max: 0.435671
Time = 0.000255

DICPCG:  Solving for cellMotionUx, Initial residual = 4.0759e-06, Final residual = 7.13032e-09, No Iterations 18
DICPCG:  Solving for pcorr, Initial residual = 1, Final residual = 0.00802187, No Iterations 15
time step continuity errors : sum local = 7.6498e-12, global = -1.31276e-13, cumulative = -9.91752e-07
DILUPBiCG:  Solving for Ux, Initial residual = 0.00346012, Final residual = 1.74992e-07, No Iterations 2
DILUPBiCG:  Solving for Uy, Initial residual = 0.0036752, Final residual = 4.25996e-07, No Iterations 2
DILUPBiCG:  Solving for Uz, Initial residual = 0.00990852, Final residual = 7.95016e-06, No Iterations 1
DICPCG:  Solving for p, Initial residual = 0.00802526, Final residual = 0.000356147, No Iterations 9
time step continuity errors : sum local = 3.47998e-07, global = 1.67403e-09, cumulative = -9.90078e-07
DICPCG:  Solving for p, Initial residual = 0.00128109, Final residual = 9.73917e-07, No Iterations 58
time step continuity errors : sum local = 9.5164e-10, global = 9.50407e-12, cumulative = -9.90069e-07
ExecutionTime = 5.89 s  ClockTime = 6 s

Courant Number mean: 0.0388816 max: 0.43395
Time = 0.00026

DICPCG:  Solving for cellMotionUx, Initial residual = 4.02818e-06, Final residual = 7.13217e-09, No Iterations 18
DICPCG:  Solving for pcorr, Initial residual = 1, Final residual = 0.00789086, No Iterations 15
time step continuity errors : sum local = 7.50925e-12, global = -1.58903e-13, cumulative = -9.90069e-07
DILUPBiCG:  Solving for Ux, Initial residual = 0.00343611, Final residual = 1.84643e-07, No Iterations 2
DILUPBiCG:  Solving for Uy, Initial residual = 0.00363722, Final residual = 4.19592e-07, No Iterations 2
DILUPBiCG:  Solving for Uz, Initial residual = 0.0099867, Final residual = 7.91268e-06, No Iterations 1
DICPCG:  Solving for p, Initial residual = 0.00796726, Final residual = 0.000352224, No Iterations 9
time step continuity errors : sum local = 3.42556e-07, global = 1.64388e-09, cumulative = -9.88425e-07
DICPCG:  Solving for p, Initial residual = 0.00125069, Final residual = 6.22449e-07, No Iterations 59
time step continuity errors : sum local = 6.05241e-10, global = 1.21657e-11, cumulative = -9.88413e-07
ExecutionTime = 6 s  ClockTime = 6 s

Courant Number mean: 0.0388647 max: 0.432321
Time = 0.000265

DICPCG:  Solving for cellMotionUx, Initial residual = 3.98107e-06, Final residual = 7.13372e-09, No Iterations 18
DICPCG:  Solving for pcorr, Initial residual = 1, Final residual = 0.00769527, No Iterations 15
time step continuity errors : sum local = 4.65749e-12, global = -8.765e-14, cumulative = -9.88413e-07
DILUPBiCG:  Solving for Ux, Initial residual = 0.00340704, Final residual = 1.93107e-07, No Iterations 2
DILUPBiCG:  Solving for Uy, Initial residual = 0.00360891, Final residual = 4.12888e-07, No Iterations 2
DILUPBiCG:  Solving for Uz, Initial residual = 0.00977929, Final residual = 8.91236e-06, No Iterations 1
DICPCG:  Solving for p, Initial residual = 0.00789472, Final residual = 0.000348263, No Iterations 9
time step continuity errors : sum local = 3.37014e-07, global = 1.61943e-09, cumulative = -9.86794e-07
DICPCG:  Solving for p, Initial residual = 0.00122784, Final residual = 6.57554e-07, No Iterations 59
time step continuity errors : sum local = 6.36032e-10, global = 1.39968e-11, cumulative = -9.8678e-07
ExecutionTime = 6.1 s  ClockTime = 6 s

Courant Number mean: 0.0388459 max: 0.430789
Time = 0.00027

DICPCG:  Solving for cellMotionUx, Initial residual = 3.93454e-06, Final residual = 7.13534e-09, No Iterations 18
DICPCG:  Solving for pcorr, Initial residual = 1, Final residual = 0.00856817, No Iterations 15
time step continuity errors : sum local = 5.44963e-12, global = -1.31426e-13, cumulative = -9.8678e-07
DILUPBiCG:  Solving for Ux, Initial residual = 0.00337553, Final residual = 2.00475e-07, No Iterations 2
DILUPBiCG:  Solving for Uy, Initial residual = 0.00357645, Final residual = 4.06603e-07, No Iterations 2
DILUPBiCG:  Solving for Uz, Initial residual = 0.00958964, Final residual = 7.52211e-06, No Iterations 1
DICPCG:  Solving for p, Initial residual = 0.00779822, Final residual = 0.000344618, No Iterations 9
time step continuity errors : sum local = 3.31709e-07, global = 1.60181e-09, cumulative = -9.85178e-07
DICPCG:  Solving for p, Initial residual = 0.00120156, Final residual = 6.94007e-07, No Iterations 59
time step continuity errors : sum local = 6.67537e-10, global = 1.43283e-11, cumulative = -9.85164e-07
ExecutionTime = 6.21 s  ClockTime = 6 s

Courant Number mean: 0.0388281 max: 0.429362
Time = 0.000275

DICPCG:  Solving for cellMotionUx, Initial residual = 3.88859e-06, Final residual = 7.13808e-09, No Iterations 18
DICPCG:  Solving for pcorr, Initial residual = 1, Final residual = 0.00787621, No Iterations 16
time step continuity errors : sum local = 5.25766e-12, global = -2.24084e-13, cumulative = -9.85164e-07
DILUPBiCG:  Solving for Ux, Initial residual = 0.00334823, Final residual = 2.06515e-07, No Iterations 2
DILUPBiCG:  Solving for Uy, Initial residual = 0.00353821, Final residual = 4.01617e-07, No Iterations 2
DILUPBiCG:  Solving for Uz, Initial residual = 0.00949514, Final residual = 8.39682e-06, No Iterations 1
DICPCG:  Solving for p, Initial residual = 0.00770045, Final residual = 0.000341202, No Iterations 9
time step continuity errors : sum local = 3.26547e-07, global = 1.5876e-09, cumulative = -9.83576e-07
DICPCG:  Solving for p, Initial residual = 0.00117793, Final residual = 7.26805e-07, No Iterations 59
time step continuity errors : sum local = 6.94916e-10, global = 1.28229e-11, cumulative = -9.83563e-07
ExecutionTime = 6.33 s  ClockTime = 6 s

Courant Number mean: 0.0388085 max: 0.428041
Time = 0.00028

DICPCG:  Solving for cellMotionUx, Initial residual = 3.84321e-06, Final residual = 7.13988e-09, No Iterations 18
DICPCG:  Solving for pcorr, Initial residual = 1, Final residual = 0.00798898, No Iterations 17
time step continuity errors : sum local = 5.55167e-12, global = -2.4669e-13, cumulative = -9.83564e-07
DILUPBiCG:  Solving for Ux, Initial residual = 0.00331952, Final residual = 2.11353e-07, No Iterations 2
DILUPBiCG:  Solving for Uy, Initial residual = 0.0034978, Final residual = 3.98976e-07, No Iterations 2
DILUPBiCG:  Solving for Uz, Initial residual = 0.0092881, Final residual = 8.13917e-06, No Iterations 1
DICPCG:  Solving for p, Initial residual = 0.00769235, Final residual = 0.000338846, No Iterations 9
time step continuity errors : sum local = 3.22335e-07, global = 1.57497e-09, cumulative = -9.81989e-07
DICPCG:  Solving for p, Initial residual = 0.00115682, Final residual = 9.25882e-07, No Iterations 58
time step continuity errors : sum local = 8.79721e-10, global = -3.04931e-12, cumulative = -9.81992e-07
ExecutionTime = 6.43 s  ClockTime = 6 s

Courant Number mean: 0.0387866 max: 0.426832
Time = 0.000285

DICPCG:  Solving for cellMotionUx, Initial residual = 3.79842e-06, Final residual = 7.14054e-09, No Iterations 18
DICPCG:  Solving for pcorr, Initial residual = 1, Final residual = 0.00992168, No Iterations 17
time step continuity errors : sum local = 8.72831e-12, global = -1.92544e-13, cumulative = -9.81992e-07
DILUPBiCG:  Solving for Ux, Initial residual = 0.00329238, Final residual = 2.15122e-07, No Iterations 2
DILUPBiCG:  Solving for Uy, Initial residual = 0.00345407, Final residual = 4.00558e-07, No Iterations 2
DILUPBiCG:  Solving for Uz, Initial residual = 0.0091846, Final residual = 7.63273e-06, No Iterations 1
DICPCG:  Solving for p, Initial residual = 0.00767803, Final residual = 0.000337626, No Iterations 9
time step continuity errors : sum local = 3.19129e-07, global = 1.55489e-09, cumulative = -9.80437e-07
DICPCG:  Solving for p, Initial residual = 0.00113877, Final residual = 9.01461e-07, No Iterations 58
time step continuity errors : sum local = 8.50847e-10, global = 3.01018e-11, cumulative = -9.80407e-07
ExecutionTime = 6.54 s  ClockTime = 6 s

Courant Number mean: 0.0387639 max: 0.425736
Time = 0.00029

DICPCG:  Solving for cellMotionUx, Initial residual = 3.75424e-06, Final residual = 7.14078e-09, No Iterations 18
DICPCG:  Solving for pcorr, Initial residual = 1, Final residual = 0.00999338, No Iterations 17
time step continuity errors : sum local = 8.50284e-12, global = 4.81585e-14, cumulative = -9.80407e-07
DILUPBiCG:  Solving for Ux, Initial residual = 0.00326451, Final residual = 2.18118e-07, No Iterations 2
DILUPBiCG:  Solving for Uy, Initial residual = 0.00340725, Final residual = 4.10649e-07, No Iterations 2
DILUPBiCG:  Solving for Uz, Initial residual = 0.00953136, Final residual = 7.5328e-06, No Iterations 1
DICPCG:  Solving for p, Initial residual = 0.00764061, Final residual = 0.000337078, No Iterations 9
time step continuity errors : sum local = 3.16479e-07, global = 1.57846e-09, cumulative = -9.78828e-07
DICPCG:  Solving for p, Initial residual = 0.00112434, Final residual = 8.12003e-07, No Iterations 59
time step continuity errors : sum local = 7.61111e-10, global = 1.91641e-11, cumulative = -9.78809e-07
ExecutionTime = 6.65 s  ClockTime = 6 s

Courant Number mean: 0.0387429 max: 0.424753
Time = 0.000295

DICPCG:  Solving for cellMotionUx, Initial residual = 3.71065e-06, Final residual = 7.13993e-09, No Iterations 18
DICPCG:  Solving for pcorr, Initial residual = 1, Final residual = 0.00824016, No Iterations 17
time step continuity errors : sum local = 6.27168e-12, global = 7.83148e-14, cumulative = -9.78809e-07
DILUPBiCG:  Solving for Ux, Initial residual = 0.00323739, Final residual = 2.20399e-07, No Iterations 2
DILUPBiCG:  Solving for Uy, Initial residual = 0.00336132, Final residual = 4.38013e-07, No Iterations 2
DILUPBiCG:  Solving for Uz, Initial residual = 0.00983634, Final residual = 7.61921e-06, No Iterations 1
DICPCG:  Solving for p, Initial residual = 0.00758123, Final residual = 0.000337139, No Iterations 9
time step continuity errors : sum local = 3.14335e-07, global = 1.53977e-09, cumulative = -9.77269e-07
DICPCG:  Solving for p, Initial residual = 0.00111694, Final residual = 8.36922e-07, No Iterations 59
time step continuity errors : sum local = 7.78861e-10, global = 1.74131e-11, cumulative = -9.77252e-07
ExecutionTime = 6.77 s  ClockTime = 6 s

Courant Number mean: 0.0387291 max: 0.423883
Time = 0.0003

DICPCG:  Solving for cellMotionUx, Initial residual = 3.66768e-06, Final residual = 7.13801e-09, No Iterations 18
DICPCG:  Solving for pcorr, Initial residual = 1, Final residual = 0.00824698, No Iterations 16
time step continuity errors : sum local = 6.42326e-12, global = 2.41421e-13, cumulative = -9.77252e-07
DILUPBiCG:  Solving for Ux, Initial residual = 0.00321219, Final residual = 2.21771e-07, No Iterations 2
DILUPBiCG:  Solving for Uy, Initial residual = 0.0033163, Final residual = 5.0965e-07, No Iterations 2
DILUPBiCG:  Solving for Uz, Initial residual = 0.0092147, Final residual = 8.21321e-06, No Iterations 1
DICPCG:  Solving for p, Initial residual = 0.00755666, Final residual = 0.000338316, No Iterations 9
time step continuity errors : sum local = 3.13159e-07, global = 1.53374e-09, cumulative = -9.75718e-07
DICPCG:  Solving for p, Initial residual = 0.00110988, Final residual = 8.4625e-07, No Iterations 59
time step continuity errors : sum local = 7.81707e-10, global = 1.67208e-11, cumulative = -9.75701e-07
ExecutionTime = 6.88 s  ClockTime = 7 s

Courant Number mean: 0.0387223 max: 0.423125
Time = 0.000305

DICPCG:  Solving for cellMotionUx, Initial residual = 3.62529e-06, Final residual = 7.13526e-09, No Iterations 18
DICPCG:  Solving for pcorr, Initial residual = 1, Final residual = 0.00923814, No Iterations 15
time step continuity errors : sum local = 7.22151e-12, global = 3.88949e-13, cumulative = -9.75701e-07
DILUPBiCG:  Solving for Ux, Initial residual = 0.00318963, Final residual = 2.22309e-07, No Iterations 2
DILUPBiCG:  Solving for Uy, Initial residual = 0.00328618, Final residual = 7.68918e-07, No Iterations 2
DILUPBiCG:  Solving for Uz, Initial residual = 0.00922866, Final residual = 8.1803e-06, No Iterations 1
DICPCG:  Solving for p, Initial residual = 0.00756659, Final residual = 0.00033966, No Iterations 9
time step continuity errors : sum local = 3.12069e-07, global = 1.52161e-09, cumulative = -9.74179e-07
DICPCG:  Solving for p, Initial residual = 0.00110434, Final residual = 8.49996e-07, No Iterations 59
time step continuity errors : sum local = 7.79203e-10, global = 1.62976e-11, cumulative = -9.74163e-07
ExecutionTime = 6.99 s  ClockTime = 7 s

Courant Number mean: 0.038719 max: 0.422476
Time = 0.00031

DICPCG:  Solving for cellMotionUx, Initial residual = 3.58346e-06, Final residual = 7.13189e-09, No Iterations 18
DICPCG:  Solving for pcorr, Initial residual = 1, Final residual = 0.00830073, No Iterations 15
time step continuity errors : sum local = 6.46796e-12, global = 3.89664e-13, cumulative = -9.74163e-07
DILUPBiCG:  Solving for Ux, Initial residual = 0.00316676, Final residual = 2.22071e-07, No Iterations 2
DILUPBiCG:  Solving for Uy, Initial residual = 0.00326251, Final residual = 3.98068e-06, No Iterations 2
DILUPBiCG:  Solving for Uz, Initial residual = 0.00947875, Final residual = 7.54849e-06, No Iterations 1
DICPCG:  Solving for p, Initial residual = 0.00762068, Final residual = 0.000341496, No Iterations 9
time step continuity errors : sum local = 3.11383e-07, global = 1.50983e-09, cumulative = -9.72653e-07
DICPCG:  Solving for p, Initial residual = 0.00110479, Final residual = 8.51398e-07, No Iterations 59
time step continuity errors : sum local = 7.74509e-10, global = 1.57203e-11, cumulative = -9.72637e-07
ExecutionTime = 7.09 s  ClockTime = 7 s

Courant Number mean: 0.0387213 max: 0.421933
Time = 0.000315

DICPCG:  Solving for cellMotionUx, Initial residual = 3.54223e-06, Final residual = 7.12815e-09, No Iterations 18
DICPCG:  Solving for pcorr, Initial residual = 1, Final residual = 0.00775956, No Iterations 15
time step continuity errors : sum local = 6.00985e-12, global = 3.87689e-13, cumulative = -9.72637e-07
DILUPBiCG:  Solving for Ux, Initial residual = 0.00314756, Final residual = 2.2085e-07, No Iterations 2
DILUPBiCG:  Solving for Uy, Initial residual = 0.00323695, Final residual = 9.18803e-07, No Iterations 2
DILUPBiCG:  Solving for Uz, Initial residual = 0.00924596, Final residual = 7.88574e-06, No Iterations 1
DICPCG:  Solving for p, Initial residual = 0.00768452, Final residual = 0.000343609, No Iterations 9
time step continuity errors : sum local = 3.10903e-07, global = 1.49738e-09, cumulative = -9.71139e-07
DICPCG:  Solving for p, Initial residual = 0.00110601, Final residual = 8.45081e-07, No Iterations 59
time step continuity errors : sum local = 7.62738e-10, global = 1.48506e-11, cumulative = -9.71124e-07
ExecutionTime = 7.21 s  ClockTime = 7 s

Courant Number mean: 0.0387323 max: 0.421494
Time = 0.00032

DICPCG:  Solving for cellMotionUx, Initial residual = 3.50159e-06, Final residual = 7.12405e-09, No Iterations 18
DICPCG:  Solving for pcorr, Initial residual = 1, Final residual = 0.00888504, No Iterations 14
time step continuity errors : sum local = 6.77695e-12, global = 4.07401e-13, cumulative = -9.71124e-07
DILUPBiCG:  Solving for Ux, Initial residual = 0.00312525, Final residual = 9.76542e-06, No Iterations 1
DILUPBiCG:  Solving for Uy, Initial residual = 0.00321169, Final residual = 3.80153e-07, No Iterations 2
DILUPBiCG:  Solving for Uz, Initial residual = 0.00918613, Final residual = 7.74624e-06, No Iterations 1
DICPCG:  Solving for p, Initial residual = 0.00772606, Final residual = 0.000384193, No Iterations 8
time step continuity errors : sum local = 3.44976e-07, global = 1.32669e-09, cumulative = -9.69797e-07
DICPCG:  Solving for p, Initial residual = 0.00115104, Final residual = 6.95139e-07, No Iterations 58
time step continuity errors : sum local = 6.2272e-10, global = 1.50452e-11, cumulative = -9.69782e-07
ExecutionTime = 7.31 s  ClockTime = 7 s

Courant Number mean: 0.0387517 max: 0.421152
Time = 0.000325

DICPCG:  Solving for cellMotionUx, Initial residual = 3.46151e-06, Final residual = 7.12084e-09, No Iterations 18
DICPCG:  Solving for pcorr, Initial residual = 1, Final residual = 0.0091988, No Iterations 13
time step continuity errors : sum local = 5.72827e-12, global = 2.79545e-13, cumulative = -9.69782e-07
DILUPBiCG:  Solving for Ux, Initial residual = 0.00310416, Final residual = 8.41153e-06, No Iterations 1
DILUPBiCG:  Solving for Uy, Initial residual = 0.00319808, Final residual = 2.78089e-07, No Iterations 2
DILUPBiCG:  Solving for Uz, Initial residual = 0.00906228, Final residual = 8.42625e-06, No Iterations 1
DICPCG:  Solving for p, Initial residual = 0.00775397, Final residual = 0.000379653, No Iterations 8
time step continuity errors : sum local = 3.38414e-07, global = 1.34244e-09, cumulative = -9.6844e-07
DICPCG:  Solving for p, Initial residual = 0.00114646, Final residual = 8.04014e-07, No Iterations 58
time step continuity errors : sum local = 7.15065e-10, global = 2.50706e-11, cumulative = -9.68415e-07
ExecutionTime = 7.41 s  ClockTime = 7 s

Courant Number mean: 0.0387721 max: 0.420903
Time = 0.00033

DICPCG:  Solving for cellMotionUx, Initial residual = 3.42202e-06, Final residual = 7.11738e-09, No Iterations 18
DICPCG:  Solving for pcorr, Initial residual = 1, Final residual = 0.00964667, No Iterations 13
time step continuity errors : sum local = 6.89799e-12, global = 3.48786e-13, cumulative = -9.68414e-07
DILUPBiCG:  Solving for Ux, Initial residual = 0.00308523, Final residual = 7.25717e-06, No Iterations 1
DILUPBiCG:  Solving for Uy, Initial residual = 0.00318861, Final residual = 2.89331e-07, No Iterations 2
DILUPBiCG:  Solving for Uz, Initial residual = 0.00937433, Final residual = 8.00214e-06, No Iterations 1
DICPCG:  Solving for p, Initial residual = 0.00776437, Final residual = 0.000378852, No Iterations 8
time step continuity errors : sum local = 3.35352e-07, global = 1.30543e-09, cumulative = -9.67109e-07
DICPCG:  Solving for p, Initial residual = 0.00114029, Final residual = 8.56451e-07, No Iterations 58
time step continuity errors : sum local = 7.56521e-10, global = 2.97921e-11, cumulative = -9.67079e-07
ExecutionTime = 7.52 s  ClockTime = 7 s

Courant Number mean: 0.0387952 max: 0.420741
Time = 0.000335

DICPCG:  Solving for cellMotionUx, Initial residual = 3.38311e-06, Final residual = 7.11392e-09, No Iterations 18
DICPCG:  Solving for pcorr, Initial residual = 1, Final residual = 0.00998697, No Iterations 13
time step continuity errors : sum local = 7.55535e-12, global = 4.01182e-13, cumulative = -9.67079e-07
DILUPBiCG:  Solving for Ux, Initial residual = 0.0030663, Final residual = 6.9548e-06, No Iterations 1
DILUPBiCG:  Solving for Uy, Initial residual = 0.00318135, Final residual = 3.16535e-07, No Iterations 2
DILUPBiCG:  Solving for Uz, Initial residual = 0.00903327, Final residual = 8.23176e-06, No Iterations 1
DICPCG:  Solving for p, Initial residual = 0.00775424, Final residual = 0.000379033, No Iterations 8
time step continuity errors : sum local = 3.33282e-07, global = 1.28786e-09, cumulative = -9.65791e-07
DICPCG:  Solving for p, Initial residual = 0.00113236, Final residual = 9.21382e-07, No Iterations 58
time step continuity errors : sum local = 8.08503e-10, global = 3.42564e-11, cumulative = -9.65756e-07
ExecutionTime = 7.63 s  ClockTime = 7 s

Courant Number mean: 0.0388177 max: 0.420661
Time = 0.00034

DICPCG:  Solving for cellMotionUx, Initial residual = 3.34484e-06, Final residual = 7.1105e-09, No Iterations 18
DICPCG:  Solving for pcorr, Initial residual = 1, Final residual = 0.00947452, No Iterations 13
time step continuity errors : sum local = 7.66017e-12, global = 4.92457e-13, cumulative = -9.65756e-07
DILUPBiCG:  Solving for Ux, Initial residual = 0.00305249, Final residual = 7.7794e-06, No Iterations 1
DILUPBiCG:  Solving for Uy, Initial residual = 0.00317499, Final residual = 3.57779e-07, No Iterations 2
DILUPBiCG:  Solving for Uz, Initial residual = 0.00942364, Final residual = 7.99321e-06, No Iterations 1
DICPCG:  Solving for p, Initial residual = 0.00772529, Final residual = 0.000379764, No Iterations 8
time step continuity errors : sum local = 3.31751e-07, global = 1.27109e-09, cumulative = -9.64485e-07
DICPCG:  Solving for p, Initial residual = 0.00112593, Final residual = 9.81004e-07, No Iterations 58
time step continuity errors : sum local = 8.55202e-10, global = 3.69138e-11, cumulative = -9.64448e-07
ExecutionTime = 7.74 s  ClockTime = 7 s

Courant Number mean: 0.0388404 max: 0.420656
Time = 0.000345

DICPCG:  Solving for cellMotionUx, Initial residual = 3.30718e-06, Final residual = 7.10714e-09, No Iterations 18
DICPCG:  Solving for pcorr, Initial residual = 1, Final residual = 0.00825754, No Iterations 14
time step continuity errors : sum local = 7.06187e-12, global = 5.71831e-13, cumulative = -9.64447e-07
DILUPBiCG:  Solving for Ux, Initial residual = 0.0030406, Final residual = 9.1546e-06, No Iterations 1
DILUPBiCG:  Solving for Uy, Initial residual = 0.00316705, Final residual = 4.17074e-07, No Iterations 2
DILUPBiCG:  Solving for Uz, Initial residual = 0.00943316, Final residual = 7.59942e-06, No Iterations 1
DICPCG:  Solving for p, Initial residual = 0.00768042, Final residual = 0.000380966, No Iterations 8
time step continuity errors : sum local = 3.30719e-07, global = 1.25548e-09, cumulative = -9.63192e-07
DICPCG:  Solving for p, Initial residual = 0.00111764, Final residual = 7.65395e-07, No Iterations 59
time step continuity errors : sum local = 6.63198e-10, global = 2.37428e-11, cumulative = -9.63168e-07
ExecutionTime = 7.85 s  ClockTime = 7 s

Courant Number mean: 0.0388661 max: 0.420721
Time = 0.00035

DICPCG:  Solving for cellMotionUx, Initial residual = 3.27004e-06, Final residual = 7.10395e-09, No Iterations 18
[...]
DILUPBiCG:  Solving for Uz, Initial residual = 0.022579, Final residual = 1.00546e-06, No Iterations 2
DICPCG:  Solving for p, Initial residual = 0.00409222, Final residual = 0.000204171, No Iterations 18
time step continuity errors : sum local = 1.12039e-07, global = 2.25303e-09, cumulative = 4.05202e-07
DICPCG:  Solving for p, Initial residual = 0.0006885, Final residual = 9.4491e-07, No Iterations 64
time step continuity errors : sum local = 5.19192e-10, global = 5.88697e-12, cumulative = 4.05208e-07
ExecutionTime = 65.34 s  ClockTime = 65 s

Courant Number mean: 0.0609647 max: 0.611149
Time = 0.00292

DICPCG:  Solving for cellMotionUx, Initial residual = 3.33649e-06, Final residual = 9.13332e-09, No Iterations 27
DICPCG:  Solving for pcorr, Initial residual = 1, Final residual = 0.00804263, No Iterations 15
time step continuity errors : sum local = 4.17567e-12, global = 1.05308e-13, cumulative = 4.05208e-07
DILUPBiCG:  Solving for Ux, Initial residual = 0.00127059, Final residual = 3.39305e-07, No Iterations 2
DILUPBiCG:  Solving for Uy, Initial residual = 0.00240155, Final residual = 3.10843e-06, No Iterations 2
DILUPBiCG:  Solving for Uz, Initial residual = 0.0228102, Final residual = 1.62265e-06, No Iterations 2
DICPCG:  Solving for p, Initial residual = 0.00410992, Final residual = 0.000166799, No Iterations 19
time step continuity errors : sum local = 9.16926e-08, global = 7.78968e-10, cumulative = 4.05987e-07
DICPCG:  Solving for p, Initial residual = 0.000673128, Final residual = 8.83773e-07, No Iterations 64
time step continuity errors : sum local = 4.8648e-10, global = 4.48279e-12, cumulative = 4.05991e-07
ExecutionTime = 65.45 s  ClockTime = 65 s

Courant Number mean: 0.0611207 max: 0.616971
Time = 0.002925

DICPCG:  Solving for cellMotionUx, Initial residual = 3.38382e-06, Final residual = 9.4433e-09, No Iterations 27
DICPCG:  Solving for pcorr, Initial residual = 1, Final residual = 0.00731477, No Iterations 14
time step continuity errors : sum local = 3.55849e-12, global = -8.01755e-14, cumulative = 4.05991e-07
DILUPBiCG:  Solving for Ux, Initial residual = 0.00127131, Final residual = 3.23087e-07, No Iterations 2
DILUPBiCG:  Solving for Uy, Initial residual = 0.00239695, Final residual = 3.01373e-06, No Iterations 2
DILUPBiCG:  Solving for Uz, Initial residual = 0.0231108, Final residual = 1.05441e-06, No Iterations 2
DICPCG:  Solving for p, Initial residual = 0.00413034, Final residual = 0.000175101, No Iterations 19
time step continuity errors : sum local = 9.64309e-08, global = 7.97964e-10, cumulative = 4.06789e-07
DICPCG:  Solving for p, Initial residual = 0.00068365, Final residual = 9.18457e-07, No Iterations 64
time step continuity errors : sum local = 5.06502e-10, global = 3.54561e-12, cumulative = 4.06793e-07
ExecutionTime = 65.57 s  ClockTime = 65 s

Courant Number mean: 0.0612787 max: 0.622903
Time = 0.00293

DICPCG:  Solving for cellMotionUx, Initial residual = 3.43244e-06, Final residual = 9.64785e-09, No Iterations 27
DICPCG:  Solving for pcorr, Initial residual = 1, Final residual = 0.00765286, No Iterations 14
time step continuity errors : sum local = 3.87619e-12, global = -8.2856e-14, cumulative = 4.06793e-07
DILUPBiCG:  Solving for Ux, Initial residual = 0.00127211, Final residual = 3.06198e-07, No Iterations 2
DILUPBiCG:  Solving for Uy, Initial residual = 0.0023924, Final residual = 2.92756e-06, No Iterations 2
DILUPBiCG:  Solving for Uz, Initial residual = 0.0222152, Final residual = 1.27624e-06, No Iterations 2
DICPCG:  Solving for p, Initial residual = 0.00414788, Final residual = 0.000186739, No Iterations 19
time step continuity errors : sum local = 1.03032e-07, global = 8.02822e-10, cumulative = 4.07595e-07
DICPCG:  Solving for p, Initial residual = 0.000696505, Final residual = 9.49807e-07, No Iterations 64
time step continuity errors : sum local = 5.24792e-10, global = 2.37691e-12, cumulative = 4.07598e-07
ExecutionTime = 65.7 s  ClockTime = 66 s

Courant Number mean: 0.0614391 max: 0.628948
Time = 0.002935

DICPCG:  Solving for cellMotionUx, Initial residual = 3.48215e-06, Final residual = 9.90371e-09, No Iterations 27
DICPCG:  Solving for pcorr, Initial residual = 1, Final residual = 0.00743441, No Iterations 14
time step continuity errors : sum local = 3.90152e-12, global = -7.23077e-14, cumulative = 4.07598e-07
DILUPBiCG:  Solving for Ux, Initial residual = 0.00127324, Final residual = 2.88573e-07, No Iterations 2
DILUPBiCG:  Solving for Uy, Initial residual = 0.00238761, Final residual = 2.84837e-06, No Iterations 2
DILUPBiCG:  Solving for Uz, Initial residual = 0.022354, Final residual = 1.22212e-06, No Iterations 2
DICPCG:  Solving for p, Initial residual = 0.00416642, Final residual = 0.000193799, No Iterations 19
time step continuity errors : sum local = 1.07136e-07, global = 7.3503e-10, cumulative = 4.08333e-07
DICPCG:  Solving for p, Initial residual = 0.000706748, Final residual = 9.34248e-07, No Iterations 64
time step continuity errors : sum local = 5.17228e-10, global = 1.13422e-12, cumulative = 4.08334e-07
ExecutionTime = 65.8 s  ClockTime = 66 s

Courant Number mean: 0.0616016 max: 0.635109
Time = 0.00294

DICPCG:  Solving for cellMotionUx, Initial residual = 3.53328e-06, Final residual = 4.81988e-09, No Iterations 28
DICPCG:  Solving for pcorr, Initial residual = 1, Final residual = 0.00720979, No Iterations 14
time step continuity errors : sum local = 3.7291e-12, global = -5.87013e-14, cumulative = 4.08334e-07
DILUPBiCG:  Solving for Ux, Initial residual = 0.00127488, Final residual = 2.70283e-07, No Iterations 2
DILUPBiCG:  Solving for Uy, Initial residual = 0.00238245, Final residual = 2.7759e-06, No Iterations 2
DILUPBiCG:  Solving for Uz, Initial residual = 0.0224644, Final residual = 1.00061e-06, No Iterations 2
DICPCG:  Solving for p, Initial residual = 0.00418591, Final residual = 0.000195239, No Iterations 19
time step continuity errors : sum local = 1.08153e-07, global = 6.06452e-10, cumulative = 4.0894e-07
DICPCG:  Solving for p, Initial residual = 0.000714384, Final residual = 8.92008e-07, No Iterations 64
time step continuity errors : sum local = 4.94881e-10, global = 6.85035e-14, cumulative = 4.0894e-07
ExecutionTime = 65.92 s  ClockTime = 66 s

Courant Number mean: 0.0617663 max: 0.641389
Time = 0.002945

DICPCG:  Solving for cellMotionUx, Initial residual = 3.58614e-06, Final residual = 5.0629e-09, No Iterations 28
DICPCG:  Solving for pcorr, Initial residual = 1, Final residual = 0.00987328, No Iterations 13
time step continuity errors : sum local = 4.8861e-12, global = -6.86291e-14, cumulative = 4.0894e-07
DILUPBiCG:  Solving for Ux, Initial residual = 0.00127662, Final residual = 2.51255e-07, No Iterations 2
DILUPBiCG:  Solving for Uy, Initial residual = 0.00237706, Final residual = 2.70945e-06, No Iterations 2
DILUPBiCG:  Solving for Uz, Initial residual = 0.0227264, Final residual = 8.13334e-07, No Iterations 2
DICPCG:  Solving for p, Initial residual = 0.00420663, Final residual = 0.000205368, No Iterations 19
time step continuity errors : sum local = 1.14014e-07, global = 5.6334e-10, cumulative = 4.09504e-07
DICPCG:  Solving for p, Initial residual = 0.000726615, Final residual = 8.55378e-07, No Iterations 64
time step continuity errors : sum local = 4.75632e-10, global = -9.78647e-13, cumulative = 4.09503e-07
ExecutionTime = 66.03 s  ClockTime = 66 s

Courant Number mean: 0.0619334 max: 0.647794
Time = 0.00295

DICPCG:  Solving for cellMotionUx, Initial residual = 3.63998e-06, Final residual = 5.15742e-09, No Iterations 28
DICPCG:  Solving for pcorr, Initial residual = 1, Final residual = 0.00898386, No Iterations 13
time step continuity errors : sum local = 4.27301e-12, global = -4.239e-14, cumulative = 4.09503e-07
DILUPBiCG:  Solving for Ux, Initial residual = 0.0012784, Final residual = 2.31549e-07, No Iterations 2
DILUPBiCG:  Solving for Uy, Initial residual = 0.00237152, Final residual = 2.648e-06, No Iterations 2
DILUPBiCG:  Solving for Uz, Initial residual = 0.0225628, Final residual = 8.33353e-07, No Iterations 2
DICPCG:  Solving for p, Initial residual = 0.00422886, Final residual = 0.000209447, No Iterations 19
time step continuity errors : sum local = 1.16547e-07, global = 4.57693e-10, cumulative = 4.0996e-07
DICPCG:  Solving for p, Initial residual = 0.00073599, Final residual = 8.20771e-07, No Iterations 64
time step continuity errors : sum local = 4.57472e-10, global = -2.0967e-12, cumulative = 4.09958e-07
ExecutionTime = 66.14 s  ClockTime = 66 s

Courant Number mean: 0.0621028 max: 0.654325
Time = 0.002955

DICPCG:  Solving for cellMotionUx, Initial residual = 3.6953e-06, Final residual = 5.44066e-09, No Iterations 28
DICPCG:  Solving for pcorr, Initial residual = 1, Final residual = 0.00822822, No Iterations 13
time step continuity errors : sum local = 3.76418e-12, global = -1.48287e-14, cumulative = 4.09958e-07
DILUPBiCG:  Solving for Ux, Initial residual = 0.00128037, Final residual = 2.11212e-07, No Iterations 2
DILUPBiCG:  Solving for Uy, Initial residual = 0.00236567, Final residual = 2.59145e-06, No Iterations 2
DILUPBiCG:  Solving for Uz, Initial residual = 0.0231269, Final residual = 1.12311e-06, No Iterations 2
DICPCG:  Solving for p, Initial residual = 0.00425303, Final residual = 0.000175499, No Iterations 20
time step continuity errors : sum local = 9.78905e-08, global = 9.95174e-11, cumulative = 4.10058e-07
DICPCG:  Solving for p, Initial residual = 0.000729395, Final residual = 7.82824e-07, No Iterations 64
time step continuity errors : sum local = 4.37391e-10, global = -2.70291e-12, cumulative = 4.10055e-07
ExecutionTime = 66.26 s  ClockTime = 66 s

Courant Number mean: 0.0622747 max: 0.660989
Time = 0.00296

DICPCG:  Solving for cellMotionUx, Initial residual = 3.752e-06, Final residual = 9.49373e-09, No Iterations 27
DICPCG:  Solving for pcorr, Initial residual = 1, Final residual = 0.00829585, No Iterations 13
time step continuity errors : sum local = 3.62853e-12, global = -1.83523e-14, cumulative = 4.10055e-07
DILUPBiCG:  Solving for Ux, Initial residual = 0.00128251, Final residual = 1.89873e-07, No Iterations 2
DILUPBiCG:  Solving for Uy, Initial residual = 0.00235955, Final residual = 2.53967e-06, No Iterations 2
DILUPBiCG:  Solving for Uz, Initial residual = 0.0224022, Final residual = 1.45129e-06, No Iterations 2
DICPCG:  Solving for p, Initial residual = 0.00428121, Final residual = 0.000174003, No Iterations 20
time step continuity errors : sum local = 9.72982e-08, global = 1.26637e-10, cumulative = 4.10182e-07
DICPCG:  Solving for p, Initial residual = 0.000737783, Final residual = 7.77672e-07, No Iterations 64
time step continuity errors : sum local = 4.35634e-10, global = -3.84939e-12, cumulative = 4.10178e-07
ExecutionTime = 66.37 s  ClockTime = 66 s

Courant Number mean: 0.0624495 max: 0.667788
Time = 0.002965

DICPCG:  Solving for cellMotionUx, Initial residual = 3.81028e-06, Final residual = 9.93258e-09, No Iterations 26
DICPCG:  Solving for pcorr, Initial residual = 1, Final residual = 0.00820036, No Iterations 13
time step continuity errors : sum local = 3.57235e-12, global = 2.40785e-14, cumulative = 4.10178e-07
DILUPBiCG:  Solving for Ux, Initial residual = 0.00128477, Final residual = 1.68984e-07, No Iterations 2
DILUPBiCG:  Solving for Uy, Initial residual = 0.00235355, Final residual = 2.4921e-06, No Iterations 2
DILUPBiCG:  Solving for Uz, Initial residual = 0.0230448, Final residual = 1.08438e-06, No Iterations 2
DICPCG:  Solving for p, Initial residual = 0.00430627, Final residual = 0.00018011, No Iterations 20
time step continuity errors : sum local = 1.00976e-07, global = 2.37378e-11, cumulative = 4.10201e-07
DICPCG:  Solving for p, Initial residual = 0.000749686, Final residual = 7.6759e-07, No Iterations 64
time step continuity errors : sum local = 4.31138e-10, global = -5.51166e-12, cumulative = 4.10196e-07
ExecutionTime = 66.49 s  ClockTime = 66 s

Courant Number mean: 0.0626275 max: 0.674727
Time = 0.00297

DICPCG:  Solving for cellMotionUx, Initial residual = 3.87066e-06, Final residual = 9.52545e-09, No Iterations 27
DICPCG:  Solving for pcorr, Initial residual = 1, Final residual = 0.0080405, No Iterations 13
time step continuity errors : sum local = 3.46657e-12, global = 4.95871e-14, cumulative = 4.10196e-07
DILUPBiCG:  Solving for Ux, Initial residual = 0.00128727, Final residual = 1.49229e-07, No Iterations 2
DILUPBiCG:  Solving for Uy, Initial residual = 0.00234753, Final residual = 2.44851e-06, No Iterations 2
DILUPBiCG:  Solving for Uz, Initial residual = 0.0236877, Final residual = 1.09681e-06, No Iterations 2
DICPCG:  Solving for p, Initial residual = 0.00433113, Final residual = 0.00018374, No Iterations 20
time step continuity errors : sum local = 1.03305e-07, global = -3.08427e-11, cumulative = 4.10165e-07
DICPCG:  Solving for p, Initial residual = 0.000760463, Final residual = 7.66851e-07, No Iterations 64
time step continuity errors : sum local = 4.32045e-10, global = -7.25674e-12, cumulative = 4.10158e-07
ExecutionTime = 66.6 s  ClockTime = 66 s

Courant Number mean: 0.0628081 max: 0.68181
Time = 0.002975

DICPCG:  Solving for cellMotionUx, Initial residual = 3.9316e-06, Final residual = 9.32751e-09, No Iterations 26
DICPCG:  Solving for pcorr, Initial residual = 1, Final residual = 0.0095105, No Iterations 13
time step continuity errors : sum local = 4.10897e-12, global = 7.49174e-14, cumulative = 4.10158e-07
DILUPBiCG:  Solving for Ux, Initial residual = 0.00128983, Final residual = 1.30816e-07, No Iterations 2
DILUPBiCG:  Solving for Uy, Initial residual = 0.00234138, Final residual = 2.40845e-06, No Iterations 2
DILUPBiCG:  Solving for Uz, Initial residual = 0.0234207, Final residual = 1.72488e-06, No Iterations 2
DICPCG:  Solving for p, Initial residual = 0.00435585, Final residual = 0.00019105, No Iterations 20
time step continuity errors : sum local = 1.07762e-07, global = -1.2247e-10, cumulative = 4.10036e-07
DICPCG:  Solving for p, Initial residual = 0.000773068, Final residual = 8.49362e-07, No Iterations 64
time step continuity errors : sum local = 4.80112e-10, global = -9.60351e-12, cumulative = 4.10026e-07
ExecutionTime = 66.72 s  ClockTime = 67 s

Courant Number mean: 0.0629916 max: 0.689043
Time = 0.00298

DICPCG:  Solving for cellMotionUx, Initial residual = 3.99557e-06, Final residual = 8.82489e-09, No Iterations 26
DICPCG:  Solving for pcorr, Initial residual = 1, Final residual = 0.009322, No Iterations 13
time step continuity errors : sum local = 4.47561e-12, global = 6.11163e-14, cumulative = 4.10026e-07
DILUPBiCG:  Solving for Ux, Initial residual = 0.00129242, Final residual = 1.14765e-07, No Iterations 2
DILUPBiCG:  Solving for Uy, Initial residual = 0.00233554, Final residual = 2.37228e-06, No Iterations 2
DILUPBiCG:  Solving for Uz, Initial residual = 0.0237943, Final residual = 7.3775e-07, No Iterations 2
DICPCG:  Solving for p, Initial residual = 0.00438122, Final residual = 0.000189848, No Iterations 20
time step continuity errors : sum local = 1.07439e-07, global = -9.68931e-11, cumulative = 4.09929e-07
DICPCG:  Solving for p, Initial residual = 0.000781791, Final residual = 8.92908e-07, No Iterations 64
time step continuity errors : sum local = 5.06427e-10, global = -1.14401e-11, cumulative = 4.09918e-07
ExecutionTime = 66.84 s  ClockTime = 67 s

Courant Number mean: 0.0631781 max: 0.69643
Time = 0.002985

DICPCG:  Solving for cellMotionUx, Initial residual = 4.06081e-06, Final residual = 8.64961e-09, No Iterations 26
DICPCG:  Solving for pcorr, Initial residual = 1, Final residual = 0.00704827, No Iterations 14
time step continuity errors : sum local = 3.56944e-12, global = -1.96215e-14, cumulative = 4.09918e-07
DILUPBiCG:  Solving for Ux, Initial residual = 0.00129512, Final residual = 1.03749e-07, No Iterations 2
DILUPBiCG:  Solving for Uy, Initial residual = 0.0023296, Final residual = 2.33976e-06, No Iterations 2
DILUPBiCG:  Solving for Uz, Initial residual = 0.0223175, Final residual = 6.65403e-07, No Iterations 2
DICPCG:  Solving for p, Initial residual = 0.0044081, Final residual = 0.000199358, No Iterations 20
time step continuity errors : sum local = 1.13201e-07, global = -2.34174e-10, cumulative = 4.09683e-07
DICPCG:  Solving for p, Initial residual = 0.000796539, Final residual = 7.54044e-07, No Iterations 65
time step continuity errors : sum local = 4.29132e-10, global = -9.26569e-12, cumulative = 4.09674e-07
ExecutionTime = 66.95 s  ClockTime = 67 s

Courant Number mean: 0.0633679 max: 0.703977
Time = 0.00299

DICPCG:  Solving for cellMotionUx, Initial residual = 4.12792e-06, Final residual = 8.44765e-09, No Iterations 26
DICPCG:  Solving for pcorr, Initial residual = 1, Final residual = 0.00961873, No Iterations 13
time step continuity errors : sum local = 4.12771e-12, global = 2.70361e-15, cumulative = 4.09674e-07
DILUPBiCG:  Solving for Ux, Initial residual = 0.00129794, Final residual = 1.20848e-07, No Iterations 2
DILUPBiCG:  Solving for Uy, Initial residual = 0.00232368, Final residual = 2.31033e-06, No Iterations 2
DILUPBiCG:  Solving for Uz, Initial residual = 0.0242687, Final residual = 8.44743e-07, No Iterations 2
DICPCG:  Solving for p, Initial residual = 0.00443671, Final residual = 0.000203103, No Iterations 20
time step continuity errors : sum local = 1.15725e-07, global = -2.80747e-10, cumulative = 4.09393e-07
DICPCG:  Solving for p, Initial residual = 0.000808404, Final residual = 7.53596e-07, No Iterations 65
time step continuity errors : sum local = 4.30378e-10, global = -8.97456e-12, cumulative = 4.09384e-07
ExecutionTime = 67.06 s  ClockTime = 67 s

Courant Number mean: 0.0635607 max: 0.711688
Time = 0.002995

DICPCG:  Solving for cellMotionUx, Initial residual = 4.19691e-06, Final residual = 8.34321e-09, No Iterations 26
DICPCG:  Solving for pcorr, Initial residual = 1, Final residual = 0.00957533, No Iterations 13
time step continuity errors : sum local = 4.12101e-12, global = 3.55823e-15, cumulative = 4.09384e-07
DILUPBiCG:  Solving for Ux, Initial residual = 0.00130124, Final residual = 1.51098e-07, No Iterations 2
DILUPBiCG:  Solving for Uy, Initial residual = 0.00231797, Final residual = 2.2838e-06, No Iterations 2
DILUPBiCG:  Solving for Uz, Initial residual = 0.0244426, Final residual = 8.8212e-07, No Iterations 2
DICPCG:  Solving for p, Initial residual = 0.00446829, Final residual = 0.000209344, No Iterations 20
time step continuity errors : sum local = 1.197e-07, global = -3.6071e-10, cumulative = 4.09024e-07
DICPCG:  Solving for p, Initial residual = 0.000821771, Final residual = 8.1567e-07, No Iterations 65
time step continuity errors : sum local = 4.67491e-10, global = -8.0284e-12, cumulative = 4.09016e-07
ExecutionTime = 67.17 s  ClockTime = 67 s

Courant Number mean: 0.0637572 max: 0.71957
Time = 0.003

DICPCG:  Solving for cellMotionUx, Initial residual = 4.2679e-06, Final residual = 8.28434e-09, No Iterations 26
DICPCG:  Solving for pcorr, Initial residual = 1, Final residual = 0.00826127, No Iterations 13
time step continuity errors : sum local = 3.86207e-12, global = 8.92912e-15, cumulative = 4.09016e-07
DILUPBiCG:  Solving for Ux, Initial residual = 0.00130484, Final residual = 1.86003e-07, No Iterations 2
DILUPBiCG:  Solving for Uy, Initial residual = 0.00231234, Final residual = 2.2605e-06, No Iterations 2
DILUPBiCG:  Solving for Uz, Initial residual = 0.0244934, Final residual = 1.38227e-06, No Iterations 2
DICPCG:  Solving for p, Initial residual = 0.00450447, Final residual = 0.00021387, No Iterations 20
time step continuity errors : sum local = 1.22726e-07, global = -4.13214e-10, cumulative = 4.08603e-07
DICPCG:  Solving for p, Initial residual = 0.000834793, Final residual = 8.26721e-07, No Iterations 65
time step continuity errors : sum local = 4.75549e-10, global = -9.74866e-12, cumulative = 4.08593e-07
ExecutionTime = 67.3 s  ClockTime = 67 s

End

