/*---------------------------------------------------------------------------*\
| =========                 |                                                 |
| \\      /  F ield         | OpenFOAM: The Open Source CFD Toolbox           |
|  \\    /   O peration     | Version:  1.4.1                                 |
|   \\  /    A nd           | Web:      http://www.openfoam.org               |
|    \\/     M anipulation  |                                                 |
\*---------------------------------------------------------------------------*/

Exec   : icoDyMFoam . movingCone 
Date   : Mar 26 2008
Time   : 10:01:41
Host   : hill-linux
PID    : 5723
Root   : /home/richardsmith/projects/openfoam/1.4.1/richardsmith-1.4.1/run/tutorials/icoDyMFoam
Case   : movingCone
Nprocs : 1
Create time

Create mesh for time = 0

Selecting dynamicFvMesh dynamicMotionSolverFvMesh
Selecting motion solver: velocityComponentLaplacian
Selecting motion diffusion: directional
Reading transportProperties

Reading field p

Reading field U

Reading/calculating face flux field phi

Reading field rAU if present


Starting time loop

Courant Number mean: 0 max: 0.3
Time = 5e-06

DICPCG:  Solving for cellMotionUx, Initial residual = 1, Final residual = 7.49021e-09, No Iterations 41
DICPCG:  Solving for pcorr, Initial residual = 1, Final residual = 0.00667693, No Iterations 56
time step continuity errors : sum local = 6.71014e-06, global = -2.72801e-07, cumulative = -2.72801e-07
DILUPBiCG:  Solving for Ux, Initial residual = 1, Final residual = 7.82288e-06, No Iterations 2
DILUPBiCG:  Solving for Uy, Initial residual = 0, Final residual = 0, No Iterations 0
DILUPBiCG:  Solving for Uz, Initial residual = 0, Final residual = 0, No Iterations 0
DICPCG:  Solving for p, Initial residual = 1, Final residual = 0.0432287, No Iterations 51
time step continuity errors : sum local = 4.35178e-05, global = -1.54102e-06, cumulative = -1.81382e-06
DICPCG:  Solving for p, Initial residual = 0.00698879, Final residual = 9.00053e-07, No Iterations 62
time step continuity errors : sum local = 1.07626e-07, global = 1.71679e-09, cumulative = -1.8121e-06
ExecutionTime = 0.17 s  ClockTime = 0 s

Courant Number mean: 0.0375819 max: 0.372289
Time = 1e-05

DICPCG:  Solving for cellMotionUx, Initial residual = 7.1381e-06, Final residual = 9.376e-09, No Iterations 18
DICPCG:  Solving for pcorr, Initial residual = 1, Final residual = 0.00878987, No Iterations 12
time step continuity errors : sum local = 9.46022e-10, global = -8.09476e-12, cumulative = -1.81211e-06
DILUPBiCG:  Solving for Ux, Initial residual = 0.344507, Final residual = 1.10947e-06, No Iterations 2
DILUPBiCG:  Solving for Uy, Initial residual = 0.325978, Final residual = 2.29455e-06, No Iterations 2
DILUPBiCG:  Solving for Uz, Initial residual = 0.395049, Final residual = 1.35779e-06, No Iterations 2
DICPCG:  Solving for p, Initial residual = 0.0111126, Final residual = 0.000478805, No Iterations 50
time step continuity errors : sum local = 5.54552e-05, global = 5.9727e-07, cumulative = -1.21484e-06
DICPCG:  Solving for p, Initial residual = 0.138773, Final residual = 8.7611e-07, No Iterations 67
time step continuity errors : sum local = 5.12354e-09, global = 2.61807e-11, cumulative = -1.21481e-06
ExecutionTime = 0.26 s  ClockTime = 0 s

Courant Number mean: 0.0376431 max: 0.356495
Time = 1.5e-05

DICPCG:  Solving for cellMotionUx, Initial residual = 7.04931e-06, Final residual = 9.36148e-09, No Iterations 18
DICPCG:  Solving for pcorr, Initial residual = 1, Final residual = 0.00891873, No Iterations 12
time step continuity errors : sum local = 4.56955e-11, global = -9.09941e-14, cumulative = -1.21481e-06
DILUPBiCG:  Solving for Ux, Initial residual = 0.0290087, Final residual = 2.48837e-07, No Iterations 2
DILUPBiCG:  Solving for Uy, Initial residual = 0.0184708, Final residual = 3.23485e-07, No Iterations 2
DILUPBiCG:  Solving for Uz, Initial residual = 0.0368468, Final residual = 1.22114e-07, No Iterations 2
DICPCG:  Solving for p, Initial residual = 0.0551126, Final residual = 0.00188509, No Iterations 47
time step continuity errors : sum local = 1.51049e-05, global = 7.11955e-07, cumulative = -5.02857e-07
DICPCG:  Solving for p, Initial residual = 0.029561, Final residual = 8.66137e-07, No Iterations 66
time step continuity errors : sum local = 2.85757e-09, global = -2.63198e-11, cumulative = -5.02883e-07
ExecutionTime = 0.34 s  ClockTime = 0 s

Courant Number mean: 0.0375865 max: 0.364855
Time = 2e-05

DICPCG:  Solving for cellMotionUx, Initial residual = 6.96661e-06, Final residual = 9.09324e-09, No Iterations 18
DICPCG:  Solving for pcorr, Initial residual = 1, Final residual = 0.00797142, No Iterations 13
time step continuity errors : sum local = 2.27789e-11, global = -6.29881e-13, cumulative = -5.02884e-07
DILUPBiCG:  Solving for Ux, Initial residual = 0.0130482, Final residual = 1.1051e-07, No Iterations 2
DILUPBiCG:  Solving for Uy, Initial residual = 0.008902, Final residual = 2.57169e-07, No Iterations 2
DILUPBiCG:  Solving for Uz, Initial residual = 0.0206306, Final residual = 1.26882e-07, No Iterations 2
DICPCG:  Solving for p, Initial residual = 0.0793095, Final residual = 0.00386929, No Iterations 44
time step continuity errors : sum local = 1.01878e-05, global = 8.95744e-08, cumulative = -4.1331e-07
DICPCG:  Solving for p, Initial residual = 0.0173811, Final residual = 7.21046e-07, No Iterations 64
time step continuity errors : sum local = 1.1704e-09, global = 2.24244e-11, cumulative = -4.13287e-07
ExecutionTime = 0.43 s  ClockTime = 0 s

Courant Number mean: 0.037558 max: 0.381641
Time = 2.5e-05

DICPCG:  Solving for cellMotionUx, Initial residual = 6.88612e-06, Final residual = 8.91952e-09, No Iterations 18
DICPCG:  Solving for pcorr, Initial residual = 1, Final residual = 0.00947333, No Iterations 12
time step continuity errors : sum local = 1.10876e-11, global = -3.58041e-13, cumulative = -4.13288e-07
DILUPBiCG:  Solving for Ux, Initial residual = 0.0069336, Final residual = 8.57273e-08, No Iterations 2
DILUPBiCG:  Solving for Uy, Initial residual = 0.00527395, Final residual = 2.54009e-07, No Iterations 2
DILUPBiCG:  Solving for Uz, Initial residual = 0.0186941, Final residual = 1.15217e-07, No Iterations 2
DICPCG:  Solving for p, Initial residual = 0.08905, Final residual = 0.00427716, No Iterations 14
time step continuity errors : sum local = 6.09952e-06, global = -7.10736e-07, cumulative = -1.12402e-06
DICPCG:  Solving for p, Initial residual = 0.00833778, Final residual = 6.32603e-07, No Iterations 61
time step continuity errors : sum local = 8.75481e-10, global = -1.83054e-12, cumulative = -1.12403e-06
ExecutionTime = 0.52 s  ClockTime = 0 s

Courant Number mean: 0.0375373 max: 0.396609
Time = 3e-05

DICPCG:  Solving for cellMotionUx, Initial residual = 6.80691e-06, Final residual = 8.5949e-09, No Iterations 18
DICPCG:  Solving for pcorr, Initial residual = 1, Final residual = 0.00695747, No Iterations 12
time step continuity errors : sum local = 6.09113e-12, global = 2.38675e-13, cumulative = -1.12403e-06
DILUPBiCG:  Solving for Ux, Initial residual = 0.00705151, Final residual = 8.87788e-08, No Iterations 2
DILUPBiCG:  Solving for Uy, Initial residual = 0.0043806, Final residual = 4.46607e-07, No Iterations 2
DILUPBiCG:  Solving for Uz, Initial residual = 0.0183729, Final residual = 8.8091e-08, No Iterations 2
DICPCG:  Solving for p, Initial residual = 0.0541696, Final residual = 0.00208197, No Iterations 4
time step continuity errors : sum local = 3.53171e-06, global = 7.13667e-08, cumulative = -1.05266e-06
DICPCG:  Solving for p, Initial residual = 0.00410282, Final residual = 8.25701e-07, No Iterations 59
time step continuity errors : sum local = 1.37023e-09, global = 4.80892e-11, cumulative = -1.05261e-06
ExecutionTime = 0.6 s  ClockTime = 0 s

Courant Number mean: 0.0375223 max: 0.410359
Time = 3.5e-05

DICPCG:  Solving for cellMotionUx, Initial residual = 6.72974e-06, Final residual = 8.46124e-09, No Iterations 18
DICPCG:  Solving for pcorr, Initial residual = 1, Final residual = 0.00631719, No Iterations 15
time step continuity errors : sum local = 8.656e-12, global = 2.30647e-13, cumulative = -1.05261e-06
DILUPBiCG:  Solving for Ux, Initial residual = 0.00635707, Final residual = 7.77968e-08, No Iterations 2
DILUPBiCG:  Solving for Uy, Initial residual = 0.0044088, Final residual = 3.24638e-06, No Iterations 2
DILUPBiCG:  Solving for Uz, Initial residual = 0.0177768, Final residual = 1.01633e-07, No Iterations 2
DICPCG:  Solving for p, Initial residual = 0.0478963, Final residual = 0.00219536, No Iterations 3
time step continuity errors : sum local = 3.34829e-06, global = -9.34992e-09, cumulative = -1.06196e-06
DICPCG:  Solving for p, Initial residual = 0.00388682, Final residual = 9.0316e-07, No Iterations 59
time step continuity errors : sum local = 1.35129e-09, global = 4.55653e-11, cumulative = -1.06191e-06
ExecutionTime = 0.68 s  ClockTime = 0 s

Courant Number mean: 0.037511 max: 0.423006
Time = 4e-05

DICPCG:  Solving for cellMotionUx, Initial residual = 6.65427e-06, Final residual = 7.63648e-09, No Iterations 18
DICPCG:  Solving for pcorr, Initial residual = 1, Final residual = 0.00794033, No Iterations 10
time step continuity errors : sum local = 1.07297e-11, global = 4.57666e-13, cumulative = -1.06191e-06
DILUPBiCG:  Solving for Ux, Initial residual = 0.00609075, Final residual = 7.8113e-08, No Iterations 2
DILUPBiCG:  Solving for Uy, Initial residual = 0.00417424, Final residual = 6.14026e-07, No Iterations 2
DILUPBiCG:  Solving for Uz, Initial residual = 0.0169781, Final residual = 1.1097e-07, No Iterations 2
DICPCG:  Solving for p, Initial residual = 0.0404804, Final residual = 0.00166757, No Iterations 3
time step continuity errors : sum local = 2.42016e-06, global = 4.11984e-09, cumulative = -1.05779e-06
DICPCG:  Solving for p, Initial residual = 0.00334563, Final residual = 6.28411e-07, No Iterations 60
time step continuity errors : sum local = 8.97289e-10, global = 2.0248e-11, cumulative = -1.05777e-06
ExecutionTime = 0.76 s  ClockTime = 0 s

Courant Number mean: 0.0375055 max: 0.434445
Time = 4.5e-05

DICPCG:  Solving for cellMotionUx, Initial residual = 6.58043e-06, Final residual = 7.73039e-09, No Iterations 18
DICPCG:  Solving for pcorr, Initial residual = 1, Final residual = 0.0070092, No Iterations 12
time step continuity errors : sum local = 6.28928e-12, global = 3.00227e-13, cumulative = -1.05777e-06
DILUPBiCG:  Solving for Ux, Initial residual = 0.00577182, Final residual = 8.98398e-08, No Iterations 2
DILUPBiCG:  Solving for Uy, Initial residual = 0.00421001, Final residual = 3.25547e-07, No Iterations 2
DILUPBiCG:  Solving for Uz, Initial residual = 0.0162737, Final residual = 8.48066e-08, No Iterations 2
DICPCG:  Solving for p, Initial residual = 0.0360707, Final residual = 0.00161236, No Iterations 3
time step continuity errors : sum local = 2.22152e-06, global = -1.53735e-09, cumulative = -1.05931e-06
DICPCG:  Solving for p, Initial residual = 0.00324522, Final residual = 6.34286e-07, No Iterations 60
time step continuity errors : sum local = 8.64945e-10, global = 1.71172e-11, cumulative = -1.05929e-06
ExecutionTime = 0.84 s  ClockTime = 1 s

Courant Number mean: 0.0375048 max: 0.44461
Time = 5e-05

DICPCG:  Solving for cellMotionUx, Initial residual = 6.50786e-06, Final residual = 7.05946e-09, No Iterations 18
DICPCG:  Solving for pcorr, Initial residual = 1, Final residual = 0.00687952, No Iterations 12
time step continuity errors : sum local = 5.95041e-12, global = 2.97689e-13, cumulative = -1.05929e-06
DILUPBiCG:  Solving for Ux, Initial residual = 0.00555008, Final residual = 1.06952e-07, No Iterations 2
DILUPBiCG:  Solving for Uy, Initial residual = 0.00421143, Final residual = 2.41684e-07, No Iterations 2
DILUPBiCG:  Solving for Uz, Initial residual = 0.0158808, Final residual = 8.35157e-08, No Iterations 2
DICPCG:  Solving for p, Initial residual = 0.0319534, Final residual = 0.00100756, No Iterations 4
time step continuity errors : sum local = 1.35156e-06, global = 1.27504e-09, cumulative = -1.05802e-06
DICPCG:  Solving for p, Initial residual = 0.00283019, Final residual = 6.95716e-07, No Iterations 59
time step continuity errors : sum local = 9.25531e-10, global = 2.65667e-11, cumulative = -1.05799e-06
ExecutionTime = 0.92 s  ClockTime = 1 s

Courant Number mean: 0.0375083 max: 0.453444
Time = 5.5e-05

DICPCG:  Solving for cellMotionUx, Initial residual = 6.43576e-06, Final residual = 8.04595e-09, No Iterations 18
DICPCG:  Solving for pcorr, Initial residual = 1, Final residual = 0.00792076, No Iterations 11
time step continuity errors : sum local = 7.33091e-12, global = 2.8901e-13, cumulative = -1.05799e-06
DILUPBiCG:  Solving for Ux, Initial residual = 0.00533905, Final residual = 1.31961e-07, No Iterations 2
DILUPBiCG:  Solving for Uy, Initial residual = 0.00423544, Final residual = 2.16005e-07, No Iterations 2
DILUPBiCG:  Solving for Uz, Initial residual = 0.0150495, Final residual = 1.03598e-07, No Iterations 2
DICPCG:  Solving for p, Initial residual = 0.0286888, Final residual = 0.00101788, No Iterations 4
time step continuity errors : sum local = 1.32574e-06, global = -3.58872e-10, cumulative = -1.05835e-06
DICPCG:  Solving for p, Initial residual = 0.00278526, Final residual = 7.51099e-07, No Iterations 59
time step continuity errors : sum local = 9.70776e-10, global = 2.99291e-11, cumulative = -1.05832e-06
ExecutionTime = 1.01 s  ClockTime = 1 s

Courant Number mean: 0.037519 max: 0.460925
Time = 6e-05

DICPCG:  Solving for cellMotionUx, Initial residual = 6.36502e-06, Final residual = 7.47593e-09, No Iterations 18
DICPCG:  Solving for pcorr, Initial residual = 1, Final residual = 0.00756857, No Iterations 12
time step continuity errors : sum local = 7.34738e-12, global = 3.26432e-13, cumulative = -1.05832e-06
DILUPBiCG:  Solving for Ux, Initial residual = 0.00519413, Final residual = 1.65467e-07, No Iterations 2
DILUPBiCG:  Solving for Uy, Initial residual = 0.00424736, Final residual = 2.02555e-07, No Iterations 2
DILUPBiCG:  Solving for Uz, Initial residual = 0.0150314, Final residual = 1.05047e-07, No Iterations 2
DICPCG:  Solving for p, Initial residual = 0.0257774, Final residual = 0.0010075, No Iterations 4
time step continuity errors : sum local = 1.28005e-06, global = 4.09051e-10, cumulative = -1.05791e-06
DICPCG:  Solving for p, Initial residual = 0.00268949, Final residual = 7.42231e-07, No Iterations 59
time step continuity errors : sum local = 9.37061e-10, global = 2.8032e-11, cumulative = -1.05788e-06
ExecutionTime = 1.09 s  ClockTime = 1 s

Courant Number mean: 0.0375328 max: 0.467062
Time = 6.5e-05

DICPCG:  Solving for cellMotionUx, Initial residual = 6.29483e-06, Final residual = 7.74866e-09, No Iterations 18
DICPCG:  Solving for pcorr, Initial residual = 1, Final residual = 0.00971922, No Iterations 11
time step continuity errors : sum local = 9.1075e-12, global = 3.06387e-13, cumulative = -1.05788e-06
DILUPBiCG:  Solving for Ux, Initial residual = 0.00506459, Final residual = 2.12981e-07, No Iterations 2
DILUPBiCG:  Solving for Uy, Initial residual = 0.00426512, Final residual = 1.95285e-07, No Iterations 2
DILUPBiCG:  Solving for Uz, Initial residual = 0.0145649, Final residual = 1.2761e-07, No Iterations 2
DICPCG:  Solving for p, Initial residual = 0.0233216, Final residual = 0.00100127, No Iterations 4
time step continuity errors : sum local = 1.24319e-06, global = 3.61429e-11, cumulative = -1.05785e-06
DICPCG:  Solving for p, Initial residual = 0.00259802, Final residual = 7.51951e-07, No Iterations 59
time step continuity errors : sum local = 9.28372e-10, global = 2.77114e-11, cumulative = -1.05782e-06
ExecutionTime = 1.16 s  ClockTime = 1 s

Courant Number mean: 0.0375502 max: 0.471903
Time = 7e-05

DICPCG:  Solving for cellMotionUx, Initial residual = 6.22586e-06, Final residual = 7.28942e-09, No Iterations 18
DICPCG:  Solving for pcorr, Initial residual = 1, Final residual = 0.00795677, No Iterations 12
time step continuity errors : sum local = 7.38684e-12, global = 3.6562e-13, cumulative = -1.05782e-06
DILUPBiCG:  Solving for Ux, Initial residual = 0.00493161, Final residual = 2.87649e-07, No Iterations 2
DILUPBiCG:  Solving for Uy, Initial residual = 0.00428854, Final residual = 1.90983e-07, No Iterations 2
DILUPBiCG:  Solving for Uz, Initial residual = 0.0143284, Final residual = 1.30851e-07, No Iterations 2
DICPCG:  Solving for p, Initial residual = 0.0217902, Final residual = 0.0010056, No Iterations 4
time step continuity errors : sum local = 1.22369e-06, global = 2.04778e-10, cumulative = -1.05761e-06
DICPCG:  Solving for p, Initial residual = 0.00251501, Final residual = 7.56818e-07, No Iterations 59
time step continuity errors : sum local = 9.16463e-10, global = 2.72474e-11, cumulative = -1.05759e-06
ExecutionTime = 1.24 s  ClockTime = 1 s

Courant Number mean: 0.0375733 max: 0.475533
Time = 7.5e-05

DICPCG:  Solving for cellMotionUx, Initial residual = 6.15838e-06, Final residual = 7.46007e-09, No Iterations 18
DICPCG:  Solving for pcorr, Initial residual = 1, Final residual = 0.00810372, No Iterations 12
time step continuity errors : sum local = 7.42676e-12, global = 4.08587e-13, cumulative = -1.05759e-06
DILUPBiCG:  Solving for Ux, Initial residual = 0.00481803, Final residual = 4.59041e-07, No Iterations 2
DILUPBiCG:  Solving for Uy, Initial residual = 0.00431373, Final residual = 1.84146e-07, No Iterations 2
DILUPBiCG:  Solving for Uz, Initial residual = 0.0140087, Final residual = 1.42873e-07, No Iterations 2
DICPCG:  Solving for p, Initial residual = 0.0205036, Final residual = 0.00101934, No Iterations 4
time step continuity errors : sum local = 1.218e-06, global = 1.49407e-10, cumulative = -1.05744e-06
DICPCG:  Solving for p, Initial residual = 0.00245256, Final residual = 7.6518e-07, No Iterations 59
time step continuity errors : sum local = 9.10563e-10, global = 2.74116e-11, cumulative = -1.05741e-06
ExecutionTime = 1.32 s  ClockTime = 1 s

Courant Number mean: 0.0376001 max: 0.478066
Time = 8e-05

DICPCG:  Solving for cellMotionUx, Initial residual = 6.09166e-06, Final residual = 7.25606e-09, No Iterations 18
DICPCG:  Solving for pcorr, Initial residual = 1, Final residual = 0.00829991, No Iterations 12
time step continuity errors : sum local = 7.55759e-12, global = 5.27681e-13, cumulative = -1.05741e-06
DILUPBiCG:  Solving for Ux, Initial residual = 0.00470218, Final residual = 3.2932e-06, No Iterations 2
DILUPBiCG:  Solving for Uy, Initial residual = 0.00433423, Final residual = 1.76359e-07, No Iterations 2
DILUPBiCG:  Solving for Uz, Initial residual = 0.014014, Final residual = 1.32414e-07, No Iterations 2
DICPCG:  Solving for p, Initial residual = 0.019305, Final residual = 0.00080144, No Iterations 5
time step continuity errors : sum local = 9.42419e-07, global = 1.10668e-09, cumulative = -1.0563e-06
DICPCG:  Solving for p, Initial residual = 0.00228112, Final residual = 8.73835e-07, No Iterations 58
time step continuity errors : sum local = 1.02441e-09, global = 3.14988e-11, cumulative = -1.05627e-06
ExecutionTime = 1.4 s  ClockTime = 1 s

Courant Number mean: 0.0376296 max: 0.479633
Time = 8.5e-05

DICPCG:  Solving for cellMotionUx, Initial residual = 6.02551e-06, Final residual = 6.78774e-09, No Iterations 18
DICPCG:  Solving for pcorr, Initial residual = 1, Final residual = 0.0097307, No Iterations 12
time step continuity errors : sum local = 9.96824e-12, global = -4.59207e-13, cumulative = -1.05627e-06
DILUPBiCG:  Solving for Ux, Initial residual = 0.00461214, Final residual = 2.56635e-07, No Iterations 2
DILUPBiCG:  Solving for Uy, Initial residual = 0.00434905, Final residual = 1.65725e-07, No Iterations 2
DILUPBiCG:  Solving for Uz, Initial residual = 0.0135568, Final residual = 1.21573e-07, No Iterations 2
DICPCG:  Solving for p, Initial residual = 0.0180535, Final residual = 0.000819655, No Iterations 5
time step continuity errors : sum local = 9.50782e-07, global = 1.10518e-09, cumulative = -1.05517e-06
DICPCG:  Solving for p, Initial residual = 0.00226737, Final residual = 8.82937e-07, No Iterations 58
time step continuity errors : sum local = 1.02248e-09, global = 3.04723e-11, cumulative = -1.05514e-06
ExecutionTime = 1.48 s  ClockTime = 1 s

Courant Number mean: 0.0376626 max: 0.48038
Time = 9e-05

DICPCG:  Solving for cellMotionUx, Initial residual = 5.95972e-06, Final residual = 7.22025e-09, No Iterations 18
DICPCG:  Solving for pcorr, Initial residual = 1, Final residual = 0.00909884, No Iterations 12
time step continuity errors : sum local = 9.30337e-12, global = -2.64581e-13, cumulative = -1.05514e-06
DILUPBiCG:  Solving for Ux, Initial residual = 0.00454391, Final residual = 9.22402e-08, No Iterations 2
DILUPBiCG:  Solving for Uy, Initial residual = 0.00435315, Final residual = 1.53236e-07, No Iterations 2
DILUPBiCG:  Solving for Uz, Initial residual = 0.013402, Final residual = 1.17945e-07, No Iterations 2
DICPCG:  Solving for p, Initial residual = 0.0168739, Final residual = 0.000810186, No Iterations 5
time step continuity errors : sum local = 9.28976e-07, global = 1.15487e-09, cumulative = -1.05398e-06
DICPCG:  Solving for p, Initial residual = 0.0022252, Final residual = 8.6256e-07, No Iterations 58
time step continuity errors : sum local = 9.87697e-10, global = 2.53435e-11, cumulative = -1.05396e-06
ExecutionTime = 1.56 s  ClockTime = 1 s

Courant Number mean: 0.037699 max: 0.480451
Time = 9.5e-05

DICPCG:  Solving for cellMotionUx, Initial residual = 5.89481e-06, Final residual = 6.93934e-09, No Iterations 18
DICPCG:  Solving for pcorr, Initial residual = 1, Final residual = 0.00785331, No Iterations 12
time step continuity errors : sum local = 7.75669e-12, global = 1.32837e-13, cumulative = -1.05396e-06
DILUPBiCG:  Solving for Ux, Initial residual = 0.00448502, Final residual = 1.33585e-07, No Iterations 2
DILUPBiCG:  Solving for Uy, Initial residual = 0.00434645, Final residual = 1.40337e-07, No Iterations 2
DILUPBiCG:  Solving for Uz, Initial residual = 0.0132336, Final residual = 9.26061e-08, No Iterations 2
DICPCG:  Solving for p, Initial residual = 0.0158989, Final residual = 0.000696466, No Iterations 6
time step continuity errors : sum local = 7.90223e-07, global = 1.23046e-09, cumulative = -1.05273e-06
DICPCG:  Solving for p, Initial residual = 0.00212059, Final residual = 8.82156e-07, No Iterations 58
time step continuity errors : sum local = 9.99536e-10, global = 2.61363e-11, cumulative = -1.0527e-06
ExecutionTime = 1.64 s  ClockTime = 1 s

Courant Number mean: 0.0377385 max: 0.480457
Time = 0.0001

DICPCG:  Solving for cellMotionUx, Initial residual = 5.83024e-06, Final residual = 6.99998e-09, No Iterations 18
DICPCG:  Solving for pcorr, Initial residual = 1, Final residual = 0.00844732, No Iterations 12
time step continuity errors : sum local = 8.4434e-12, global = 2.41315e-13, cumulative = -1.0527e-06
DILUPBiCG:  Solving for Ux, Initial residual = 0.00443103, Final residual = 1.59513e-07, No Iterations 2
DILUPBiCG:  Solving for Uy, Initial residual = 0.00433889, Final residual = 1.46307e-07, No Iterations 2
DILUPBiCG:  Solving for Uz, Initial residual = 0.0129885, Final residual = 8.09657e-08, No Iterations 2
DICPCG:  Solving for p, Initial residual = 0.0151451, Final residual = 0.000704163, No Iterations 6
time step continuity errors : sum local = 7.91267e-07, global = 1.17821e-09, cumulative = -1.05152e-06
DICPCG:  Solving for p, Initial residual = 0.00206257, Final residual = 9.15663e-07, No Iterations 58
time step continuity errors : sum local = 1.02785e-09, global = 2.92909e-11, cumulative = -1.05149e-06
ExecutionTime = 1.72 s  ClockTime = 1 s

Courant Number mean: 0.0377814 max: 0.481421
Time = 0.000105

DICPCG:  Solving for cellMotionUx, Initial residual = 5.76629e-06, Final residual = 6.87744e-09, No Iterations 18
DICPCG:  Solving for pcorr, Initial residual = 1, Final residual = 0.00852713, No Iterations 12
time step continuity errors : sum local = 8.76459e-12, global = 2.39712e-13, cumulative = -1.05149e-06
DILUPBiCG:  Solving for Ux, Initial residual = 0.00437326, Final residual = 1.69668e-07, No Iterations 2
DILUPBiCG:  Solving for Uy, Initial residual = 0.00432344, Final residual = 1.90888e-07, No Iterations 2
DILUPBiCG:  Solving for Uz, Initial residual = 0.0126111, Final residual = 7.30708e-08, No Iterations 2
DICPCG:  Solving for p, Initial residual = 0.014368, Final residual = 0.000692628, No Iterations 6
time step continuity errors : sum local = 7.71509e-07, global = 1.21361e-09, cumulative = -1.05028e-06
DICPCG:  Solving for p, Initial residual = 0.00198491, Final residual = 8.91578e-07, No Iterations 58
time step continuity errors : sum local = 9.92563e-10, global = 3.02717e-11, cumulative = -1.05025e-06
ExecutionTime = 1.8 s  ClockTime = 1 s

Courant Number mean: 0.0378471 max: 0.481751
Time = 0.00011

DICPCG:  Solving for cellMotionUx, Initial residual = 5.70271e-06, Final residual = 6.90953e-09, No Iterations 18
DICPCG:  Solving for pcorr, Initial residual = 1, Final residual = 0.00877455, No Iterations 12
time step continuity errors : sum local = 8.70929e-12, global = 2.38686e-13, cumulative = -1.05025e-06
DILUPBiCG:  Solving for Ux, Initial residual = 0.00431405, Final residual = 1.66022e-07, No Iterations 2
DILUPBiCG:  Solving for Uy, Initial residual = 0.00430508, Final residual = 2.80625e-07, No Iterations 2
DILUPBiCG:  Solving for Uz, Initial residual = 0.0127446, Final residual = 9.0377e-08, No Iterations 2
DICPCG:  Solving for p, Initial residual = 0.0135346, Final residual = 0.00059064, No Iterations 7
time step continuity errors : sum local = 6.52893e-07, global = 1.31878e-09, cumulative = -1.04893e-06
DICPCG:  Solving for p, Initial residual = 0.00185903, Final residual = 7.86335e-07, No Iterations 57
time step continuity errors : sum local = 8.69234e-10, global = 7.86008e-12, cumulative = -1.04892e-06
ExecutionTime = 1.88 s  ClockTime = 2 s

Courant Number mean: 0.0379193 max: 0.481586
Time = 0.000115

DICPCG:  Solving for cellMotionUx, Initial residual = 5.63968e-06, Final residual = 6.90053e-09, No Iterations 18
DICPCG:  Solving for pcorr, Initial residual = 1, Final residual = 0.00822615, No Iterations 12
time step continuity errors : sum local = 7.15044e-12, global = 8.22813e-15, cumulative = -1.04892e-06
DILUPBiCG:  Solving for Ux, Initial residual = 0.00426193, Final residual = 1.39846e-07, No Iterations 2
DILUPBiCG:  Solving for Uy, Initial residual = 0.00428347, Final residual = 4.81436e-07, No Iterations 2
DILUPBiCG:  Solving for Uz, Initial residual = 0.0123215, Final residual = 1.0779e-07, No Iterations 2
DICPCG:  Solving for p, Initial residual = 0.0127885, Final residual = 0.000595631, No Iterations 7
time step continuity errors : sum local = 6.54015e-07, global = 1.21453e-09, cumulative = -1.04771e-06
DICPCG:  Solving for p, Initial residual = 0.00180912, Final residual = 9.43361e-07, No Iterations 57
time step continuity errors : sum local = 1.03646e-09, global = 2.20664e-12, cumulative = -1.0477e-06
ExecutionTime = 1.96 s  ClockTime = 2 s

Courant Number mean: 0.0379956 max: 0.481047
Time = 0.00012

DICPCG:  Solving for cellMotionUx, Initial residual = 5.57709e-06, Final residual = 6.90177e-09, No Iterations 18
DICPCG:  Solving for pcorr, Initial residual = 1, Final residual = 0.008351, No Iterations 12
time step continuity errors : sum local = 8.65552e-12, global = 1.63464e-14, cumulative = -1.0477e-06
DILUPBiCG:  Solving for Ux, Initial residual = 0.00421275, Final residual = 1.68029e-07, No Iterations 2
DILUPBiCG:  Solving for Uy, Initial residual = 0.00424736, Final residual = 1.26647e-06, No Iterations 2
DILUPBiCG:  Solving for Uz, Initial residual = 0.0122884, Final residual = 1.29281e-07, No Iterations 2
DICPCG:  Solving for p, Initial residual = 0.0121168, Final residual = 0.000589671, No Iterations 7
time step continuity errors : sum local = 6.43693e-07, global = 1.23766e-09, cumulative = -1.04647e-06
DICPCG:  Solving for p, Initial residual = 0.00174871, Final residual = 9.52157e-07, No Iterations 57
time step continuity errors : sum local = 1.04011e-09, global = 3.50442e-12, cumulative = -1.04646e-06
ExecutionTime = 2.04 s  ClockTime = 2 s

Courant Number mean: 0.0380703 max: 0.480234
Time = 0.000125

DICPCG:  Solving for cellMotionUx, Initial residual = 5.51494e-06, Final residual = 6.90452e-09, No Iterations 18
DICPCG:  Solving for pcorr, Initial residual = 1, Final residual = 0.00923324, No Iterations 12
time step continuity errors : sum local = 9.60356e-12, global = -5.85915e-14, cumulative = -1.04646e-06
DILUPBiCG:  Solving for Ux, Initial residual = 0.00416751, Final residual = 3.70755e-07, No Iterations 2
DILUPBiCG:  Solving for Uy, Initial residual = 0.00419567, Final residual = 1.92075e-06, No Iterations 2
DILUPBiCG:  Solving for Uz, Initial residual = 0.0123532, Final residual = 1.5608e-07, No Iterations 2
DICPCG:  Solving for p, Initial residual = 0.0115002, Final residual = 0.000504604, No Iterations 8
time step continuity errors : sum local = 5.47648e-07, global = 2.18189e-09, cumulative = -1.04428e-06
DICPCG:  Solving for p, Initial residual = 0.00162475, Final residual = 9.32438e-07, No Iterations 58
time step continuity errors : sum local = 1.0127e-09, global = 3.64843e-11, cumulative = -1.04424e-06
ExecutionTime = 2.12 s  ClockTime = 2 s

Courant Number mean: 0.0381482 max: 0.479226
Time = 0.00013

DICPCG:  Solving for cellMotionUx, Initial residual = 5.45324e-06, Final residual = 6.90429e-09, No Iterations 18
DICPCG:  Solving for pcorr, Initial residual = 1, Final residual = 0.00747164, No Iterations 25
time step continuity errors : sum local = 7.56649e-12, global = 3.81332e-14, cumulative = -1.04424e-06
DILUPBiCG:  Solving for Ux, Initial residual = 0.00413281, Final residual = 8.47956e-07, No Iterations 2
DILUPBiCG:  Solving for Uy, Initial residual = 0.00414884, Final residual = 4.24747e-07, No Iterations 2
DILUPBiCG:  Solving for Uz, Initial residual = 0.0118134, Final residual = 1.78243e-07, No Iterations 2
DICPCG:  Solving for p, Initial residual = 0.0108971, Final residual = 0.000512655, No Iterations 8
time step continuity errors : sum local = 5.53116e-07, global = 2.12507e-09, cumulative = -1.04212e-06
DICPCG:  Solving for p, Initial residual = 0.00158409, Final residual = 9.26206e-07, No Iterations 58
time step continuity errors : sum local = 9.99949e-10, global = 3.85919e-11, cumulative = -1.04208e-06
ExecutionTime = 2.21 s  ClockTime = 2 s

Courant Number mean: 0.0382265 max: 0.478082
Time = 0.000135

DICPCG:  Solving for cellMotionUx, Initial residual = 5.39197e-06, Final residual = 6.91234e-09, No Iterations 18
DICPCG:  Solving for pcorr, Initial residual = 1, Final residual = 0.00767414, No Iterations 25
time step continuity errors : sum local = 7.67375e-12, global = 4.1245e-14, cumulative = -1.04208e-06
DILUPBiCG:  Solving for Ux, Initial residual = 0.00410199, Final residual = 2.30334e-06, No Iterations 2
DILUPBiCG:  Solving for Uy, Initial residual = 0.00417315, Final residual = 1.49625e-07, No Iterations 2
DILUPBiCG:  Solving for Uz, Initial residual = 0.0117437, Final residual = 2.332e-07, No Iterations 2
DICPCG:  Solving for p, Initial residual = 0.0104351, Final residual = 0.000513596, No Iterations 8
time step continuity errors : sum local = 5.50882e-07, global = 2.15257e-09, cumulative = -1.03993e-06
DICPCG:  Solving for p, Initial residual = 0.00154962, Final residual = 9.13081e-07, No Iterations 58
time step continuity errors : sum local = 9.79975e-10, global = 4.3255e-11, cumulative = -1.03988e-06
ExecutionTime = 2.3 s  ClockTime = 2 s

Courant Number mean: 0.0383014 max: 0.476843
Time = 0.00014

DICPCG:  Solving for cellMotionUx, Initial residual = 5.33116e-06, Final residual = 6.92374e-09, No Iterations 18
DICPCG:  Solving for pcorr, Initial residual = 1, Final residual = 0.00940658, No Iterations 16
time step continuity errors : sum local = 9.21821e-12, global = 1.07555e-12, cumulative = -1.03988e-06
DILUPBiCG:  Solving for Ux, Initial residual = 0.00407383, Final residual = 1.92121e-09, No Iterations 3
DILUPBiCG:  Solving for Uy, Initial residual = 0.004203, Final residual = 6.86657e-08, No Iterations 2
DILUPBiCG:  Solving for Uz, Initial residual = 0.01201, Final residual = 1.49963e-07, No Iterations 2
DICPCG:  Solving for p, Initial residual = 0.0100688, Final residual = 0.000420813, No Iterations 9
time step continuity errors : sum local = 4.4873e-07, global = 2.38328e-09, cumulative = -1.0375e-06
DICPCG:  Solving for p, Initial residual = 0.00143311, Final residual = 7.22096e-07, No Iterations 56
time step continuity errors : sum local = 7.70609e-10, global = -1.26149e-11, cumulative = -1.03751e-06
ExecutionTime = 2.38 s  ClockTime = 2 s

Courant Number mean: 0.0383725 max: 0.475535
Time = 0.000145

DICPCG:  Solving for cellMotionUx, Initial residual = 5.27081e-06, Final residual = 6.94623e-09, No Iterations 18
DICPCG:  Solving for pcorr, Initial residual = 1, Final residual = 0.00721363, No Iterations 15
time step continuity errors : sum local = 5.55889e-12, global = 2.49857e-13, cumulative = -1.03751e-06
DILUPBiCG:  Solving for Ux, Initial residual = 0.00404831, Final residual = 4.19944e-06, No Iterations 2
DILUPBiCG:  Solving for Uy, Initial residual = 0.00421996, Final residual = 1.33423e-07, No Iterations 2
DILUPBiCG:  Solving for Uz, Initial residual = 0.012056, Final residual = 1.40891e-07, No Iterations 2
DICPCG:  Solving for p, Initial residual = 0.00992354, Final residual = 0.000426232, No Iterations 9
time step continuity errors : sum local = 4.51894e-07, global = 2.23165e-09, cumulative = -1.03528e-06
DICPCG:  Solving for p, Initial residual = 0.0014324, Final residual = 9.22435e-07, No Iterations 56
time step continuity errors : sum local = 9.78719e-10, global = -2.63923e-11, cumulative = -1.03531e-06
ExecutionTime = 2.46 s  ClockTime = 2 s

Courant Number mean: 0.038439 max: 0.474174
Time = 0.00015

DICPCG:  Solving for cellMotionUx, Initial residual = 5.21091e-06, Final residual = 6.97092e-09, No Iterations 18
DICPCG:  Solving for pcorr, Initial residual = 1, Final residual = 0.00965515, No Iterations 16
time step continuity errors : sum local = 9.44968e-12, global = 9.95013e-13, cumulative = -1.03531e-06
DILUPBiCG:  Solving for Ux, Initial residual = 0.00401901, Final residual = 2.36634e-06, No Iterations 2
DILUPBiCG:  Solving for Uy, Initial residual = 0.00423006, Final residual = 1.93586e-07, No Iterations 2
DILUPBiCG:  Solving for Uz, Initial residual = 0.0116489, Final residual = 1.88049e-07, No Iterations 2
DICPCG:  Solving for p, Initial residual = 0.00978256, Final residual = 0.000428387, No Iterations 9
time step continuity errors : sum local = 4.51589e-07, global = 2.26366e-09, cumulative = -1.03304e-06
DICPCG:  Solving for p, Initial residual = 0.00144542, Final residual = 9.40401e-07, No Iterations 56
time step continuity errors : sum local = 9.92005e-10, global = -2.62658e-11, cumulative = -1.03307e-06
ExecutionTime = 2.54 s  ClockTime = 2 s

Courant Number mean: 0.0385033 max: 0.472765
Time = 0.000155

DICPCG:  Solving for cellMotionUx, Initial residual = 5.15148e-06, Final residual = 6.99129e-09, No Iterations 18
DICPCG:  Solving for pcorr, Initial residual = 1, Final residual = 0.00954458, No Iterations 16
time step continuity errors : sum local = 9.46827e-12, global = 9.73194e-13, cumulative = -1.03307e-06
DILUPBiCG:  Solving for Ux, Initial residual = 0.00398942, Final residual = 1.63803e-06, No Iterations 2
DILUPBiCG:  Solving for Uy, Initial residual = 0.00421934, Final residual = 2.38452e-07, No Iterations 2
DILUPBiCG:  Solving for Uz, Initial residual = 0.0113596, Final residual = 8.50335e-08, No Iterations 2
DICPCG:  Solving for p, Initial residual = 0.0096397, Final residual = 0.000429813, No Iterations 9
time step continuity errors : sum local = 4.50506e-07, global = 2.25754e-09, cumulative = -1.03081e-06
DICPCG:  Solving for p, Initial residual = 0.00147177, Final residual = 9.57672e-07, No Iterations 56
time step continuity errors : sum local = 1.00448e-09, global = -2.465e-11, cumulative = -1.03083e-06
ExecutionTime = 2.63 s  ClockTime = 2 s

Courant Number mean: 0.0385626 max: 0.471309
Time = 0.00016

DICPCG:  Solving for cellMotionUx, Initial residual = 5.09254e-06, Final residual = 7.00635e-09, No Iterations 18
DICPCG:  Solving for pcorr, Initial residual = 1, Final residual = 0.00846732, No Iterations 26
time step continuity errors : sum local = 8.50523e-12, global = 3.07895e-13, cumulative = -1.03083e-06
DILUPBiCG:  Solving for Ux, Initial residual = 0.00395375, Final residual = 1.06917e-06, No Iterations 2
DILUPBiCG:  Solving for Uy, Initial residual = 0.00418773, Final residual = 2.68179e-07, No Iterations 2
DILUPBiCG:  Solving for Uz, Initial residual = 0.0114536, Final residual = 1.36156e-07, No Iterations 2
DICPCG:  Solving for p, Initial residual = 0.00950553, Final residual = 0.000430819, No Iterations 9
time step continuity errors : sum local = 4.49029e-07, global = 2.25521e-09, cumulative = -1.02858e-06
DICPCG:  Solving for p, Initial residual = 0.001495, Final residual = 8.45378e-07, No Iterations 47
time step continuity errors : sum local = 8.8168e-10, global = 2.84948e-11, cumulative = -1.02855e-06
ExecutionTime = 2.7 s  ClockTime = 2 s

Courant Number mean: 0.0386169 max: 0.469803
Time = 0.000165

DICPCG:  Solving for cellMotionUx, Initial residual = 5.03409e-06, Final residual = 7.01708e-09, No Iterations 18
DICPCG:  Solving for pcorr, Initial residual = 1, Final residual = 0.00880752, No Iterations 25
time step continuity errors : sum local = 7.76542e-12, global = -5.42977e-14, cumulative = -1.02855e-06
DILUPBiCG:  Solving for Ux, Initial residual = 0.00391593, Final residual = 4.50586e-07, No Iterations 2
DILUPBiCG:  Solving for Uy, Initial residual = 0.00414094, Final residual = 2.8242e-07, No Iterations 2
DILUPBiCG:  Solving for Uz, Initial residual = 0.011729, Final residual = 1.00433e-07, No Iterations 2
DICPCG:  Solving for p, Initial residual = 0.00943757, Final residual = 0.000431116, No Iterations 9
time step continuity errors : sum local = 4.46856e-07, global = 2.21147e-09, cumulative = -1.02634e-06
DICPCG:  Solving for p, Initial residual = 0.00151793, Final residual = 7.47732e-07, No Iterations 57
time step continuity errors : sum local = 7.75502e-10, global = -1.73257e-11, cumulative = -1.02636e-06
ExecutionTime = 2.78 s  ClockTime = 2 s

Courant Number mean: 0.0386678 max: 0.468241
Time = 0.00017

DICPCG:  Solving for cellMotionUx, Initial residual = 4.97615e-06, Final residual = 7.02652e-09, No Iterations 18
DICPCG:  Solving for pcorr, Initial residual = 1, Final residual = 0.00825887, No Iterations 26
time step continuity errors : sum local = 6.40477e-12, global = 6.74499e-14, cumulative = -1.02636e-06
DILUPBiCG:  Solving for Ux, Initial residual = 0.00387736, Final residual = 7.74529e-06, No Iterations 1
DILUPBiCG:  Solving for Uy, Initial residual = 0.00408343, Final residual = 2.86384e-07, No Iterations 2
DILUPBiCG:  Solving for Uz, Initial residual = 0.0112265, Final residual = 1.68342e-07, No Iterations 2
DICPCG:  Solving for p, Initial residual = 0.00939788, Final residual = 0.000430044, No Iterations 9
time step continuity errors : sum local = 4.43346e-07, global = 2.26215e-09, cumulative = -1.02409e-06
DICPCG:  Solving for p, Initial residual = 0.00154573, Final residual = 7.50642e-07, No Iterations 57
time step continuity errors : sum local = 7.74334e-10, global = -1.35156e-11, cumulative = -1.02411e-06
ExecutionTime = 2.87 s  ClockTime = 3 s

Courant Number mean: 0.0387167 max: 0.466619
Time = 0.000175

DICPCG:  Solving for cellMotionUx, Initial residual = 4.91872e-06, Final residual = 7.04038e-09, No Iterations 18
DICPCG:  Solving for pcorr, Initial residual = 1, Final residual = 0.00711952, No Iterations 16
time step continuity errors : sum local = 5.51289e-12, global = -5.76954e-13, cumulative = -1.02411e-06
DILUPBiCG:  Solving for Ux, Initial residual = 0.00383908, Final residual = 1.27008e-07, No Iterations 2
DILUPBiCG:  Solving for Uy, Initial residual = 0.0040191, Final residual = 2.8565e-07, No Iterations 2
DILUPBiCG:  Solving for Uz, Initial residual = 0.010902, Final residual = 1.52169e-07, No Iterations 2
DICPCG:  Solving for p, Initial residual = 0.00937617, Final residual = 0.000434327, No Iterations 9
time step continuity errors : sum local = 4.45517e-07, global = 2.24643e-09, cumulative = -1.02186e-06
DICPCG:  Solving for p, Initial residual = 0.0015762, Final residual = 9.79233e-07, No Iterations 56
time step continuity errors : sum local = 1.00522e-09, global = -2.55814e-11, cumulative = -1.02189e-06
ExecutionTime = 2.95 s  ClockTime = 3 s

Courant Number mean: 0.038761 max: 0.464933
Time = 0.00018

DICPCG:  Solving for cellMotionUx, Initial residual = 4.86183e-06, Final residual = 7.05105e-09, No Iterations 18
DICPCG:  Solving for pcorr, Initial residual = 1, Final residual = 0.00810469, No Iterations 15
time step continuity errors : sum local = 8.14698e-12, global = -6.41092e-13, cumulative = -1.02189e-06
DILUPBiCG:  Solving for Ux, Initial residual = 0.00380228, Final residual = 1.06277e-08, No Iterations 3
DILUPBiCG:  Solving for Uy, Initial residual = 0.00398927, Final residual = 2.86359e-07, No Iterations 2
DILUPBiCG:  Solving for Uz, Initial residual = 0.0105553, Final residual = 1.5208e-07, No Iterations 2
DICPCG:  Solving for p, Initial residual = 0.0093412, Final residual = 0.000437505, No Iterations 9
time step continuity errors : sum local = 4.467e-07, global = 2.23217e-09, cumulative = -1.01966e-06
DICPCG:  Solving for p, Initial residual = 0.00160424, Final residual = 8.69044e-07, No Iterations 56
time step continuity errors : sum local = 8.88172e-10, global = -2.75815e-11, cumulative = -1.01968e-06
ExecutionTime = 3.03 s  ClockTime = 3 s

Courant Number mean: 0.0387994 max: 0.463182
Time = 0.000185

DICPCG:  Solving for cellMotionUx, Initial residual = 4.80543e-06, Final residual = 7.06347e-09, No Iterations 18
DICPCG:  Solving for pcorr, Initial residual = 1, Final residual = 0.00714492, No Iterations 15
time step continuity errors : sum local = 6.34592e-12, global = -3.43255e-13, cumulative = -1.01968e-06
DILUPBiCG:  Solving for Ux, Initial residual = 0.00377256, Final residual = 2.04173e-06, No Iterations 2
DILUPBiCG:  Solving for Uy, Initial residual = 0.00395823, Final residual = 2.92322e-07, No Iterations 2
DILUPBiCG:  Solving for Uz, Initial residual = 0.0108755, Final residual = 1.93534e-07, No Iterations 2
DICPCG:  Solving for p, Initial residual = 0.00929516, Final residual = 0.000439272, No Iterations 9
time step continuity errors : sum local = 4.46682e-07, global = 2.21821e-09, cumulative = -1.01747e-06
DICPCG:  Solving for p, Initial residual = 0.00162095, Final residual = 7.79668e-07, No Iterations 55
time step continuity errors : sum local = 7.93632e-10, global = -5.4709e-11, cumulative = -1.01752e-06
ExecutionTime = 3.11 s  ClockTime = 3 s

Courant Number mean: 0.0388314 max: 0.461366
Time = 0.00019

DICPCG:  Solving for cellMotionUx, Initial residual = 4.74954e-06, Final residual = 7.07851e-09, No Iterations 18
DICPCG:  Solving for pcorr, Initial residual = 1, Final residual = 0.00718241, No Iterations 15
time step continuity errors : sum local = 5.70019e-12, global = -2.77685e-13, cumulative = -1.01752e-06
DILUPBiCG:  Solving for Ux, Initial residual = 0.00375323, Final residual = 1.18578e-06, No Iterations 2
DILUPBiCG:  Solving for Uy, Initial residual = 0.00391663, Final residual = 3.05323e-07, No Iterations 2
DILUPBiCG:  Solving for Uz, Initial residual = 0.0111872, Final residual = 2.6847e-07, No Iterations 2
DICPCG:  Solving for p, Initial residual = 0.00924853, Final residual = 0.000438868, No Iterations 9
time step continuity errors : sum local = 4.44589e-07, global = 2.19635e-09, cumulative = -1.01532e-06
DICPCG:  Solving for p, Initial residual = 0.00162772, Final residual = 9.34834e-07, No Iterations 54
time step continuity errors : sum local = 9.48071e-10, global = -1.62716e-11, cumulative = -1.01534e-06
ExecutionTime = 3.2 s  ClockTime = 3 s

Courant Number mean: 0.0388599 max: 0.459489
Time = 0.000195

DICPCG:  Solving for cellMotionUx, Initial residual = 4.6942e-06, Final residual = 7.09088e-09, No Iterations 18
DICPCG:  Solving for pcorr, Initial residual = 1, Final residual = 0.00933602, No Iterations 15
time step continuity errors : sum local = 8.85121e-12, global = -5.88833e-13, cumulative = -1.01534e-06
DILUPBiCG:  Solving for Ux, Initial residual = 0.00373288, Final residual = 8.06789e-07, No Iterations 2
DILUPBiCG:  Solving for Uy, Initial residual = 0.00386158, Final residual = 3.21572e-07, No Iterations 2
DILUPBiCG:  Solving for Uz, Initial residual = 0.0104857, Final residual = 1.77287e-07, No Iterations 2
DICPCG:  Solving for p, Initial residual = 0.00922713, Final residual = 0.000435997, No Iterations 9
time step continuity errors : sum local = 4.40345e-07, global = 2.18123e-09, cumulative = -1.01316e-06
DICPCG:  Solving for p, Initial residual = 0.00161739, Final residual = 7.26756e-07, No Iterations 56
time step continuity errors : sum local = 7.3519e-10, global = 2.99549e-11, cumulative = -1.01313e-06
ExecutionTime = 3.28 s  ClockTime = 3 s

Courant Number mean: 0.0388847 max: 0.457554
Time = 0.0002

DICPCG:  Solving for cellMotionUx, Initial residual = 4.6395e-06, Final residual = 7.10104e-09, No Iterations 18
DICPCG:  Solving for pcorr, Initial residual = 1, Final residual = 0.00988546, No Iterations 15
time step continuity errors : sum local = 7.26769e-12, global = -1.29164e-13, cumulative = -1.01313e-06
DILUPBiCG:  Solving for Ux, Initial residual = 0.00371906, Final residual = 5.74785e-07, No Iterations 2
DILUPBiCG:  Solving for Uy, Initial residual = 0.00382396, Final residual = 3.396e-07, No Iterations 2
DILUPBiCG:  Solving for Uz, Initial residual = 0.010385, Final residual = 9.45696e-06, No Iterations 1
DICPCG:  Solving for p, Initial residual = 0.00916691, Final residual = 0.000430581, No Iterations 9
time step continuity errors : sum local = 4.33954e-07, global = 2.14747e-09, cumulative = -1.01098e-06
DICPCG:  Solving for p, Initial residual = 0.00160331, Final residual = 9.47376e-07, No Iterations 56
time step continuity errors : sum local = 9.56612e-10, global = 2.32728e-11, cumulative = -1.01096e-06
ExecutionTime = 3.36 s  ClockTime = 3 s

Courant Number mean: 0.0389056 max: 0.455571
Time = 0.000205

DICPCG:  Solving for cellMotionUx, Initial residual = 4.58541e-06, Final residual = 7.11013e-09, No Iterations 18
DICPCG:  Solving for pcorr, Initial residual = 1, Final residual = 0.00950641, No Iterations 14
time step continuity errors : sum local = 9.09395e-12, global = 1.53452e-13, cumulative = -1.01096e-06
DILUPBiCG:  Solving for Ux, Initial residual = 0.0037014, Final residual = 4.19207e-07, No Iterations 2
DILUPBiCG:  Solving for Uy, Initial residual = 0.00380063, Final residual = 3.57094e-07, No Iterations 2
DILUPBiCG:  Solving for Uz, Initial residual = 0.0106248, Final residual = 8.26458e-06, No Iterations 1
DICPCG:  Solving for p, Initial residual = 0.00908408, Final residual = 0.000423628, No Iterations 9
time step continuity errors : sum local = 4.26196e-07, global = 2.1067e-09, cumulative = -1.00885e-06
DICPCG:  Solving for p, Initial residual = 0.00159459, Final residual = 6.00369e-07, No Iterations 57
time step continuity errors : sum local = 6.05145e-10, global = 8.77115e-12, cumulative = -1.00884e-06
ExecutionTime = 3.44 s  ClockTime = 3 s

Courant Number mean: 0.0389206 max: 0.453549
Time = 0.00021

DICPCG:  Solving for cellMotionUx, Initial residual = 4.53188e-06, Final residual = 7.11639e-09, No Iterations 18
DICPCG:  Solving for pcorr, Initial residual = 1, Final residual = 0.00809486, No Iterations 14
time step continuity errors : sum local = 4.89857e-12, global = -3.32878e-15, cumulative = -1.00884e-06
DILUPBiCG:  Solving for Ux, Initial residual = 0.00367596, Final residual = 3.11194e-07, No Iterations 2
DILUPBiCG:  Solving for Uy, Initial residual = 0.00380406, Final residual = 3.73267e-07, No Iterations 2
DILUPBiCG:  Solving for Uz, Initial residual = 0.0108484, Final residual = 8.33227e-06, No Iterations 1
DICPCG:  Solving for p, Initial residual = 0.00899189, Final residual = 0.000416145, No Iterations 9
time step continuity errors : sum local = 4.17871e-07, global = 2.06187e-09, cumulative = -1.00678e-06
DICPCG:  Solving for p, Initial residual = 0.0015767, Final residual = 6.07834e-07, No Iterations 57
time step continuity errors : sum local = 6.1137e-10, global = 1.10752e-11, cumulative = -1.00677e-06
ExecutionTime = 3.52 s  ClockTime = 3 s

Courant Number mean: 0.0389323 max: 0.451499
Time = 0.000215

DICPCG:  Solving for cellMotionUx, Initial residual = 4.47891e-06, Final residual = 7.11933e-09, No Iterations 18
DICPCG:  Solving for pcorr, Initial residual = 1, Final residual = 0.00719437, No Iterations 14
time step continuity errors : sum local = 4.39843e-12, global = -4.70327e-14, cumulative = -1.00677e-06
DILUPBiCG:  Solving for Ux, Initial residual = 0.00364392, Final residual = 2.34977e-07, No Iterations 2
DILUPBiCG:  Solving for Uy, Initial residual = 0.00381878, Final residual = 3.88224e-07, No Iterations 2
DILUPBiCG:  Solving for Uz, Initial residual = 0.0105277, Final residual = 8.40456e-06, No Iterations 1
DICPCG:  Solving for p, Initial residual = 0.00894763, Final residual = 0.00040809, No Iterations 9
time step continuity errors : sum local = 4.08868e-07, global = 2.02451e-09, cumulative = -1.00475e-06
DICPCG:  Solving for p, Initial residual = 0.0015507, Final residual = 7.23142e-07, No Iterations 57
time step continuity errors : sum local = 7.25572e-10, global = 1.86609e-11, cumulative = -1.00473e-06
ExecutionTime = 3.6 s  ClockTime = 3 s

Courant Number mean: 0.0389389 max: 0.449434
Time = 0.00022

DICPCG:  Solving for cellMotionUx, Initial residual = 4.42649e-06, Final residual = 7.12034e-09, No Iterations 18
DICPCG:  Solving for pcorr, Initial residual = 1, Final residual = 0.00763222, No Iterations 14
time step continuity errors : sum local = 5.53772e-12, global = 8.4894e-14, cumulative = -1.00473e-06
DILUPBiCG:  Solving for Ux, Initial residual = 0.00361424, Final residual = 1.81297e-07, No Iterations 2
DILUPBiCG:  Solving for Uy, Initial residual = 0.00382371, Final residual = 4.01856e-07, No Iterations 2
DILUPBiCG:  Solving for Uz, Initial residual = 0.0105372, Final residual = 7.99529e-06, No Iterations 1
DICPCG:  Solving for p, Initial residual = 0.00891122, Final residual = 0.000400135, No Iterations 9
time step continuity errors : sum local = 3.99968e-07, global = 1.98291e-09, cumulative = -1.00274e-06
DICPCG:  Solving for p, Initial residual = 0.00152313, Final residual = 9.02943e-07, No Iterations 57
time step continuity errors : sum local = 9.03927e-10, global = 2.4424e-11, cumulative = -1.00272e-06
ExecutionTime = 3.69 s  ClockTime = 3 s

Courant Number mean: 0.0389407 max: 0.447367
Time = 0.000225

DICPCG:  Solving for cellMotionUx, Initial residual = 4.37467e-06, Final residual = 7.12371e-09, No Iterations 18
DICPCG:  Solving for pcorr, Initial residual = 1, Final residual = 0.00955247, No Iterations 15
time step continuity errors : sum local = 8.63473e-12, global = -7.66501e-14, cumulative = -1.00272e-06
DILUPBiCG:  Solving for Ux, Initial residual = 0.00359173, Final residual = 1.45198e-07, No Iterations 2
DILUPBiCG:  Solving for Uy, Initial residual = 0.00382109, Final residual = 4.12873e-07, No Iterations 2
DILUPBiCG:  Solving for Uz, Initial residual = 0.0107662, Final residual = 7.98445e-06, No Iterations 1
DICPCG:  Solving for p, Initial residual = 0.00883146, Final residual = 0.00039204, No Iterations 9
time step continuity errors : sum local = 3.90947e-07, global = 1.93859e-09, cumulative = -1.00078e-06
DICPCG:  Solving for p, Initial residual = 0.00149392, Final residual = 8.29816e-07, No Iterations 58
time step continuity errors : sum local = 8.28605e-10, global = 1.89534e-11, cumulative = -1.00076e-06
ExecutionTime = 3.77 s  ClockTime = 3 s

Courant Number mean: 0.0389382 max: 0.445312
Time = 0.00023

DICPCG:  Solving for cellMotionUx, Initial residual = 4.32343e-06, Final residual = 7.12685e-09, No Iterations 18
DICPCG:  Solving for pcorr, Initial residual = 1, Final residual = 0.00963753, No Iterations 15
time step continuity errors : sum local = 7.98571e-12, global = -1.11807e-13, cumulative = -1.00076e-06
DILUPBiCG:  Solving for Ux, Initial residual = 0.00357188, Final residual = 1.29248e-07, No Iterations 2
DILUPBiCG:  Solving for Uy, Initial residual = 0.00380899, Final residual = 4.21717e-07, No Iterations 2
DILUPBiCG:  Solving for Uz, Initial residual = 0.0104662, Final residual = 7.93497e-06, No Iterations 1
DICPCG:  Solving for p, Initial residual = 0.00871972, Final residual = 0.000383798, No Iterations 9
time step continuity errors : sum local = 3.8175e-07, global = 1.88829e-09, cumulative = -9.98875e-07
DICPCG:  Solving for p, Initial residual = 0.00146013, Final residual = 9.50268e-07, No Iterations 58
time step continuity errors : sum local = 9.46342e-10, global = 1.52518e-11, cumulative = -9.9886e-07
ExecutionTime = 3.85 s  ClockTime = 4 s

Courant Number mean: 0.0389331 max: 0.443282
Time = 0.000235

DICPCG:  Solving for cellMotionUx, Initial residual = 4.27275e-06, Final residual = 7.12889e-09, No Iterations 18
DICPCG:  Solving for pcorr, Initial residual = 1, Final residual = 0.00975297, No Iterations 15
time step continuity errors : sum local = 9.22965e-12, global = -1.77702e-13, cumulative = -9.9886e-07
DILUPBiCG:  Solving for Ux, Initial residual = 0.00355535, Final residual = 1.32977e-07, No Iterations 2
DILUPBiCG:  Solving for Uy, Initial residual = 0.00379177, Final residual = 4.2797e-07, No Iterations 2
DILUPBiCG:  Solving for Uz, Initial residual = 0.0107229, Final residual = 7.80786e-06, No Iterations 1
DICPCG:  Solving for p, Initial residual = 0.00855883, Final residual = 0.000376222, No Iterations 9
time step continuity errors : sum local = 3.73168e-07, global = 1.8423e-09, cumulative = -9.97017e-07
DICPCG:  Solving for p, Initial residual = 0.00142343, Final residual = 7.13755e-07, No Iterations 59
time step continuity errors : sum local = 7.08685e-10, global = 7.85265e-12, cumulative = -9.9701e-07
ExecutionTime = 3.93 s  ClockTime = 4 s

Courant Number mean: 0.0389252 max: 0.441291
Time = 0.00024

DICPCG:  Solving for cellMotionUx, Initial residual = 4.22267e-06, Final residual = 7.12898e-09, No Iterations 18
DICPCG:  Solving for pcorr, Initial residual = 1, Final residual = 0.0089959, No Iterations 15
time step continuity errors : sum local = 6.37526e-12, global = -4.12265e-14, cumulative = -9.9701e-07
DILUPBiCG:  Solving for Ux, Initial residual = 0.00353265, Final residual = 1.42592e-07, No Iterations 2
DILUPBiCG:  Solving for Uy, Initial residual = 0.00377716, Final residual = 4.32059e-07, No Iterations 2
DILUPBiCG:  Solving for Uz, Initial residual = 0.0102576, Final residual = 7.87377e-06, No Iterations 1
DICPCG:  Solving for p, Initial residual = 0.00840878, Final residual = 0.000369953, No Iterations 9
time step continuity errors : sum local = 3.65791e-07, global = 1.79275e-09, cumulative = -9.95217e-07
DICPCG:  Solving for p, Initial residual = 0.00138718, Final residual = 6.85474e-07, No Iterations 59
time step continuity errors : sum local = 6.78284e-10, global = 4.80428e-12, cumulative = -9.95212e-07
ExecutionTime = 4.02 s  ClockTime = 4 s

Courant Number mean: 0.038914 max: 0.439351
Time = 0.000245

DICPCG:  Solving for cellMotionUx, Initial residual = 4.17316e-06, Final residual = 7.1286e-09, No Iterations 18
DICPCG:  Solving for pcorr, Initial residual = 1, Final residual = 0.00866591, No Iterations 15
time step continuity errors : sum local = 5.87795e-12, global = -4.55664e-14, cumulative = -9.95212e-07
DILUPBiCG:  Solving for Ux, Initial residual = 0.00350815, Final residual = 1.53977e-07, No Iterations 2
DILUPBiCG:  Solving for Uy, Initial residual = 0.00375227, Final residual = 4.32847e-07, No Iterations 2
DILUPBiCG:  Solving for Uz, Initial residual = 0.00998202, Final residual = 7.9565e-06, No Iterations 1
DICPCG:  Solving for p, Initial residual = 0.00827985, Final residual = 0.000365077, No Iterations 9
time step continuity errors : sum local = 3.59698e-07, global = 1.74986e-09, cumulative = -9.93462e-07
DICPCG:  Solving for p, Initial residual = 0.00134796, Final residual = 9.85617e-07, No Iterations 58
time step continuity errors : sum local = 9.71633e-10, global = 3.10754e-12, cumulative = -9.93459e-07
ExecutionTime = 4.11 s  ClockTime = 4 s

Courant Number mean: 0.0389053 max: 0.437474
Time = 0.00025

DICPCG:  Solving for cellMotionUx, Initial residual = 4.12425e-06, Final residual = 7.12926e-09, No Iterations 18
DICPCG:  Solving for pcorr, Initial residual = 1, Final residual = 0.00865893, No Iterations 15
time step continuity errors : sum local = 8.4133e-12, global = -1.49991e-13, cumulative = -9.93459e-07
DILUPBiCG:  Solving for Ux, Initial residual = 0.00348536, Final residual = 1.64847e-07, No Iterations 2
DILUPBiCG:  Solving for Uy, Initial residual = 0.00371631, Final residual = 4.30413e-07, No Iterations 2
DILUPBiCG:  Solving for Uz, Initial residual = 0.0103937, Final residual = 7.86648e-06, No Iterations 1
DICPCG:  Solving for p, Initial residual = 0.00813029, Final residual = 0.000360583, No Iterations 9
time step continuity errors : sum local = 3.53871e-07, global = 1.71094e-09, cumulative = -9.91748e-07
DICPCG:  Solving for p, Initial residual = 0.00131098, Final residual = 9.71538e-07, No Iterations 58
time step continuity errors : sum local = 9.5368e-10, global = 5.30521e-12, cumulative = -9.91743e-07
ExecutionTime = 4.2 s  ClockTime = 4 s

Courant Number mean: 0.038895 max: 0.435671
Time = 0.000255

DICPCG:  Solving for cellMotionUx, Initial residual = 4.0759e-06, Final residual = 7.13032e-09, No Iterations 18
DICPCG:  Solving for pcorr, Initial residual = 1, Final residual = 0.00802097, No Iterations 15
time step continuity errors : sum local = 7.64944e-12, global = -1.31285e-13, cumulative = -9.91743e-07
DILUPBiCG:  Solving for Ux, Initial residual = 0.00346012, Final residual = 1.74992e-07, No Iterations 2
DILUPBiCG:  Solving for Uy, Initial residual = 0.0036752, Final residual = 4.25996e-07, No Iterations 2
DILUPBiCG:  Solving for Uz, Initial residual = 0.0102086, Final residual = 8.31189e-06, No Iterations 1
DICPCG:  Solving for p, Initial residual = 0.00802526, Final residual = 0.000356147, No Iterations 9
time step continuity errors : sum local = 3.47998e-07, global = 1.67403e-09, cumulative = -9.90069e-07
DICPCG:  Solving for p, Initial residual = 0.00128109, Final residual = 9.74205e-07, No Iterations 58
time step continuity errors : sum local = 9.51921e-10, global = 9.50407e-12, cumulative = -9.9006e-07
ExecutionTime = 4.28 s  ClockTime = 4 s

Courant Number mean: 0.0388816 max: 0.43395
Time = 0.00026

DICPCG:  Solving for cellMotionUx, Initial residual = 4.02818e-06, Final residual = 7.13217e-09, No Iterations 18
DICPCG:  Solving for pcorr, Initial residual = 1, Final residual = 0.00775954, No Iterations 15
time step continuity errors : sum local = 7.38648e-12, global = -1.57732e-13, cumulative = -9.9006e-07
DILUPBiCG:  Solving for Ux, Initial residual = 0.00343611, Final residual = 1.84643e-07, No Iterations 2
DILUPBiCG:  Solving for Uy, Initial residual = 0.00363722, Final residual = 4.19592e-07, No Iterations 2
DILUPBiCG:  Solving for Uz, Initial residual = 0.0106466, Final residual = 8.36785e-06, No Iterations 1
DICPCG:  Solving for p, Initial residual = 0.00796726, Final residual = 0.000352224, No Iterations 9
time step continuity errors : sum local = 3.42556e-07, global = 1.64388e-09, cumulative = -9.88416e-07
DICPCG:  Solving for p, Initial residual = 0.00125069, Final residual = 6.22779e-07, No Iterations 59
time step continuity errors : sum local = 6.05562e-10, global = 1.21656e-11, cumulative = -9.88404e-07
ExecutionTime = 4.35 s  ClockTime = 4 s

Courant Number mean: 0.0388647 max: 0.432321
Time = 0.000265

DICPCG:  Solving for cellMotionUx, Initial residual = 3.98107e-06, Final residual = 7.13372e-09, No Iterations 18
DICPCG:  Solving for pcorr, Initial residual = 1, Final residual = 0.0076937, No Iterations 15
time step continuity errors : sum local = 4.65901e-12, global = -8.76408e-14, cumulative = -9.88404e-07
DILUPBiCG:  Solving for Ux, Initial residual = 0.00340704, Final residual = 1.93107e-07, No Iterations 2
DILUPBiCG:  Solving for Uy, Initial residual = 0.00360891, Final residual = 4.12888e-07, No Iterations 2
DILUPBiCG:  Solving for Uz, Initial residual = 0.010263, Final residual = 8.90414e-06, No Iterations 1
DICPCG:  Solving for p, Initial residual = 0.00789472, Final residual = 0.000348263, No Iterations 9
time step continuity errors : sum local = 3.37014e-07, global = 1.61943e-09, cumulative = -9.86784e-07
DICPCG:  Solving for p, Initial residual = 0.00122784, Final residual = 6.57436e-07, No Iterations 59
time step continuity errors : sum local = 6.35917e-10, global = 1.39967e-11, cumulative = -9.8677e-07
ExecutionTime = 4.43 s  ClockTime = 4 s

Courant Number mean: 0.0388459 max: 0.430789
Time = 0.00027

DICPCG:  Solving for cellMotionUx, Initial residual = 3.93454e-06, Final residual = 7.13534e-09, No Iterations 18
DICPCG:  Solving for pcorr, Initial residual = 1, Final residual = 0.00857096, No Iterations 15
time step continuity errors : sum local = 5.45042e-12, global = -1.3142e-13, cumulative = -9.86771e-07
DILUPBiCG:  Solving for Ux, Initial residual = 0.00337553, Final residual = 2.00475e-07, No Iterations 2
DILUPBiCG:  Solving for Uy, Initial residual = 0.00357645, Final residual = 4.06603e-07, No Iterations 2
DILUPBiCG:  Solving for Uz, Initial residual = 0.0105516, Final residual = 8.79083e-06, No Iterations 1
DICPCG:  Solving for p, Initial residual = 0.00779822, Final residual = 0.000344618, No Iterations 9
time step continuity errors : sum local = 3.31709e-07, global = 1.60181e-09, cumulative = -9.85169e-07
DICPCG:  Solving for p, Initial residual = 0.00120156, Final residual = 6.9374e-07, No Iterations 59
time step continuity errors : sum local = 6.6728e-10, global = 1.43282e-11, cumulative = -9.85154e-07
ExecutionTime = 4.52 s  ClockTime = 4 s

Courant Number mean: 0.0388281 max: 0.429362
Time = 0.000275

DICPCG:  Solving for cellMotionUx, Initial residual = 3.88859e-06, Final residual = 7.13808e-09, No Iterations 18
DICPCG:  Solving for pcorr, Initial residual = 1, Final residual = 0.0078804, No Iterations 16
time step continuity errors : sum local = 5.25843e-12, global = -2.24069e-13, cumulative = -9.85155e-07
DILUPBiCG:  Solving for Ux, Initial residual = 0.00334823, Final residual = 2.06515e-07, No Iterations 2
DILUPBiCG:  Solving for Uy, Initial residual = 0.00353821, Final residual = 4.01617e-07, No Iterations 2
DILUPBiCG:  Solving for Uz, Initial residual = 0.0101264, Final residual = 8.53852e-06, No Iterations 1
DICPCG:  Solving for p, Initial residual = 0.00770046, Final residual = 0.000341203, No Iterations 9
time step continuity errors : sum local = 3.26547e-07, global = 1.5876e-09, cumulative = -9.83567e-07
DICPCG:  Solving for p, Initial residual = 0.00117793, Final residual = 7.26866e-07, No Iterations 59
time step continuity errors : sum local = 6.94974e-10, global = 1.28229e-11, cumulative = -9.83554e-07
ExecutionTime = 4.6 s  ClockTime = 4 s

Courant Number mean: 0.0388085 max: 0.428041
Time = 0.00028

DICPCG:  Solving for cellMotionUx, Initial residual = 3.84321e-06, Final residual = 7.13988e-09, No Iterations 18
DICPCG:  Solving for pcorr, Initial residual = 1, Final residual = 0.0079884, No Iterations 17
time step continuity errors : sum local = 5.55173e-12, global = -2.46639e-13, cumulative = -9.83555e-07
DILUPBiCG:  Solving for Ux, Initial residual = 0.00331952, Final residual = 2.11353e-07, No Iterations 2
DILUPBiCG:  Solving for Uy, Initial residual = 0.0034978, Final residual = 3.98976e-07, No Iterations 2
DILUPBiCG:  Solving for Uz, Initial residual = 0.0103279, Final residual = 8.48881e-06, No Iterations 1
DICPCG:  Solving for p, Initial residual = 0.00769235, Final residual = 0.000338846, No Iterations 9
time step continuity errors : sum local = 3.22335e-07, global = 1.57497e-09, cumulative = -9.8198e-07
DICPCG:  Solving for p, Initial residual = 0.00115682, Final residual = 9.25903e-07, No Iterations 58
time step continuity errors : sum local = 8.79741e-10, global = -3.04907e-12, cumulative = -9.81983e-07
ExecutionTime = 4.68 s  ClockTime = 4 s

Courant Number mean: 0.0387866 max: 0.426832
Time = 0.000285

DICPCG:  Solving for cellMotionUx, Initial residual = 3.79842e-06, Final residual = 7.14054e-09, No Iterations 18
DICPCG:  Solving for pcorr, Initial residual = 1, Final residual = 0.00991086, No Iterations 17
time step continuity errors : sum local = 8.71899e-12, global = -1.92527e-13, cumulative = -9.81983e-07
DILUPBiCG:  Solving for Ux, Initial residual = 0.00329238, Final residual = 2.15122e-07, No Iterations 2
DILUPBiCG:  Solving for Uy, Initial residual = 0.00345407, Final residual = 4.00558e-07, No Iterations 2
DILUPBiCG:  Solving for Uz, Initial residual = 0.0103411, Final residual = 8.53295e-06, No Iterations 1
DICPCG:  Solving for p, Initial residual = 0.00767803, Final residual = 0.000337626, No Iterations 9
time step continuity errors : sum local = 3.19129e-07, global = 1.55489e-09, cumulative = -9.80428e-07
DICPCG:  Solving for p, Initial residual = 0.00113877, Final residual = 9.01583e-07, No Iterations 58
time step continuity errors : sum local = 8.50962e-10, global = 3.01018e-11, cumulative = -9.80398e-07
ExecutionTime = 4.76 s  ClockTime = 4 s

Courant Number mean: 0.0387639 max: 0.425736
Time = 0.00029

DICPCG:  Solving for cellMotionUx, Initial residual = 3.75424e-06, Final residual = 7.14078e-09, No Iterations 18
DICPCG:  Solving for pcorr, Initial residual = 1, Final residual = 0.00999025, No Iterations 17
time step continuity errors : sum local = 8.50132e-12, global = 4.81574e-14, cumulative = -9.80398e-07
DILUPBiCG:  Solving for Ux, Initial residual = 0.00326451, Final residual = 2.18118e-07, No Iterations 2
DILUPBiCG:  Solving for Uy, Initial residual = 0.00340725, Final residual = 4.10649e-07, No Iterations 2
DILUPBiCG:  Solving for Uz, Initial residual = 0.0101003, Final residual = 8.55515e-06, No Iterations 1
DICPCG:  Solving for p, Initial residual = 0.00764061, Final residual = 0.000337078, No Iterations 9
time step continuity errors : sum local = 3.16479e-07, global = 1.57846e-09, cumulative = -9.78819e-07
DICPCG:  Solving for p, Initial residual = 0.00112434, Final residual = 8.11869e-07, No Iterations 59
time step continuity errors : sum local = 7.60985e-10, global = 1.91638e-11, cumulative = -9.788e-07
ExecutionTime = 4.84 s  ClockTime = 5 s

Courant Number mean: 0.0387429 max: 0.424753
Time = 0.000295

DICPCG:  Solving for cellMotionUx, Initial residual = 3.71065e-06, Final residual = 7.13993e-09, No Iterations 18
DICPCG:  Solving for pcorr, Initial residual = 1, Final residual = 0.00823557, No Iterations 17
time step continuity errors : sum local = 6.26714e-12, global = 7.8254e-14, cumulative = -9.788e-07
DILUPBiCG:  Solving for Ux, Initial residual = 0.00323739, Final residual = 2.20399e-07, No Iterations 2
DILUPBiCG:  Solving for Uy, Initial residual = 0.00336132, Final residual = 4.38013e-07, No Iterations 2
DILUPBiCG:  Solving for Uz, Initial residual = 0.0103631, Final residual = 8.43825e-06, No Iterations 1
DICPCG:  Solving for p, Initial residual = 0.00758123, Final residual = 0.00033714, No Iterations 9
time step continuity errors : sum local = 3.14335e-07, global = 1.53977e-09, cumulative = -9.7726e-07
DICPCG:  Solving for p, Initial residual = 0.00111694, Final residual = 8.36862e-07, No Iterations 59
time step continuity errors : sum local = 7.78805e-10, global = 1.7413e-11, cumulative = -9.77243e-07
ExecutionTime = 4.93 s  ClockTime = 5 s

Courant Number mean: 0.0387291 max: 0.423883
Time = 0.0003

DICPCG:  Solving for cellMotionUx, Initial residual = 3.66768e-06, Final residual = 7.13801e-09, No Iterations 18
DICPCG:  Solving for pcorr, Initial residual = 1, Final residual = 0.00824364, No Iterations 16
time step continuity errors : sum local = 6.4202e-12, global = 2.41298e-13, cumulative = -9.77243e-07
DILUPBiCG:  Solving for Ux, Initial residual = 0.00321219, Final residual = 2.21771e-07, No Iterations 2
DILUPBiCG:  Solving for Uy, Initial residual = 0.0033163, Final residual = 5.0965e-07, No Iterations 2
DILUPBiCG:  Solving for Uz, Initial residual = 0.00993405, Final residual = 9.17342e-06, No Iterations 1
DICPCG:  Solving for p, Initial residual = 0.00755666, Final residual = 0.000338316, No Iterations 9
time step continuity errors : sum local = 3.13159e-07, global = 1.53374e-09, cumulative = -9.75709e-07
DICPCG:  Solving for p, Initial residual = 0.00110988, Final residual = 8.46244e-07, No Iterations 59
time step continuity errors : sum local = 7.81701e-10, global = 1.67207e-11, cumulative = -9.75692e-07
ExecutionTime = 5.01 s  ClockTime = 5 s

Courant Number mean: 0.0387223 max: 0.423125
Time = 0.000305

DICPCG:  Solving for cellMotionUx, Initial residual = 3.62529e-06, Final residual = 7.13526e-09, No Iterations 18
DICPCG:  Solving for pcorr, Initial residual = 1, Final residual = 0.00923859, No Iterations 15
time step continuity errors : sum local = 7.22181e-12, global = 3.88956e-13, cumulative = -9.75692e-07
DILUPBiCG:  Solving for Ux, Initial residual = 0.00318963, Final residual = 2.22309e-07, No Iterations 2
DILUPBiCG:  Solving for Uy, Initial residual = 0.00328618, Final residual = 7.68918e-07, No Iterations 2
DILUPBiCG:  Solving for Uz, Initial residual = 0.00995154, Final residual = 7.97433e-06, No Iterations 1
DICPCG:  Solving for p, Initial residual = 0.00756659, Final residual = 0.00033966, No Iterations 9
time step continuity errors : sum local = 3.12069e-07, global = 1.52161e-09, cumulative = -9.7417e-07
DICPCG:  Solving for p, Initial residual = 0.00110434, Final residual = 8.49982e-07, No Iterations 59
time step continuity errors : sum local = 7.7919e-10, global = 1.62976e-11, cumulative = -9.74154e-07
ExecutionTime = 5.1 s  ClockTime = 5 s

Courant Number mean: 0.038719 max: 0.422476
Time = 0.00031

DICPCG:  Solving for cellMotionUx, Initial residual = 3.58346e-06, Final residual = 7.13189e-09, No Iterations 18
DICPCG:  Solving for pcorr, Initial residual = 1, Final residual = 0.0082975, No Iterations 15
time step continuity errors : sum local = 6.46533e-12, global = 3.89644e-13, cumulative = -9.74153e-07
DILUPBiCG:  Solving for Ux, Initial residual = 0.00316676, Final residual = 2.22071e-07, No Iterations 2
DILUPBiCG:  Solving for Uy, Initial residual = 0.00326251, Final residual = 3.98068e-06, No Iterations 2
DILUPBiCG:  Solving for Uz, Initial residual = 0.00982105, Final residual = 8.04246e-06, No Iterations 1
DICPCG:  Solving for p, Initial residual = 0.00762068, Final residual = 0.000341496, No Iterations 9
time step continuity errors : sum local = 3.11383e-07, global = 1.50983e-09, cumulative = -9.72644e-07
DICPCG:  Solving for p, Initial residual = 0.00110479, Final residual = 8.51396e-07, No Iterations 59
time step continuity errors : sum local = 7.74507e-10, global = 1.57203e-11, cumulative = -9.72628e-07
ExecutionTime = 5.18 s  ClockTime = 5 s

Courant Number mean: 0.0387213 max: 0.421933
Time = 0.000315

DICPCG:  Solving for cellMotionUx, Initial residual = 3.54223e-06, Final residual = 7.12815e-09, No Iterations 18
DICPCG:  Solving for pcorr, Initial residual = 1, Final residual = 0.00775854, No Iterations 15
time step continuity errors : sum local = 6.00904e-12, global = 3.87712e-13, cumulative = -9.72628e-07
DILUPBiCG:  Solving for Ux, Initial residual = 0.00314756, Final residual = 2.2085e-07, No Iterations 2
DILUPBiCG:  Solving for Uy, Initial residual = 0.00323695, Final residual = 9.18803e-07, No Iterations 2
DILUPBiCG:  Solving for Uz, Initial residual = 0.00974187, Final residual = 8.20146e-06, No Iterations 1
DICPCG:  Solving for p, Initial residual = 0.00768452, Final residual = 0.000343609, No Iterations 9
time step continuity errors : sum local = 3.10903e-07, global = 1.49738e-09, cumulative = -9.7113e-07
DICPCG:  Solving for p, Initial residual = 0.00110601, Final residual = 8.45079e-07, No Iterations 59
time step continuity errors : sum local = 7.62736e-10, global = 1.48506e-11, cumulative = -9.71115e-07
ExecutionTime = 5.26 s  ClockTime = 5 s

Courant Number mean: 0.0387323 max: 0.421494
Time = 0.00032

DICPCG:  Solving for cellMotionUx, Initial residual = 3.50159e-06, Final residual = 7.12405e-09, No Iterations 18
DICPCG:  Solving for pcorr, Initial residual = 1, Final residual = 0.00894404, No Iterations 14
time step continuity errors : sum local = 6.82194e-12, global = 4.07807e-13, cumulative = -9.71115e-07
DILUPBiCG:  Solving for Ux, Initial residual = 0.00312525, Final residual = 9.76542e-06, No Iterations 1
DILUPBiCG:  Solving for Uy, Initial residual = 0.00321169, Final residual = 3.80153e-07, No Iterations 2
DILUPBiCG:  Solving for Uz, Initial residual = 0.00968859, Final residual = 8.46666e-06, No Iterations 1
DICPCG:  Solving for p, Initial residual = 0.00772606, Final residual = 0.000384193, No Iterations 8
time step continuity errors : sum local = 3.44976e-07, global = 1.32669e-09, cumulative = -9.69788e-07
DICPCG:  Solving for p, Initial residual = 0.00115104, Final residual = 6.95149e-07, No Iterations 58
time step continuity errors : sum local = 6.22729e-10, global = 1.50452e-11, cumulative = -9.69773e-07
ExecutionTime = 5.34 s  ClockTime = 5 s

Courant Number mean: 0.0387517 max: 0.421152
Time = 0.000325

DICPCG:  Solving for cellMotionUx, Initial residual = 3.46151e-06, Final residual = 7.12084e-09, No Iterations 18
DICPCG:  Solving for pcorr, Initial residual = 1, Final residual = 0.0088366, No Iterations 13
time step continuity errors : sum local = 5.5028e-12, global = 2.79131e-13, cumulative = -9.69773e-07
DILUPBiCG:  Solving for Ux, Initial residual = 0.00310416, Final residual = 8.41153e-06, No Iterations 1
DILUPBiCG:  Solving for Uy, Initial residual = 0.00319808, Final residual = 2.78089e-07, No Iterations 2
DILUPBiCG:  Solving for Uz, Initial residual = 0.0100524, Final residual = 7.65838e-06, No Iterations 1
DICPCG:  Solving for p, Initial residual = 0.00775397, Final residual = 0.000379653, No Iterations 8
time step continuity errors : sum local = 3.38414e-07, global = 1.34244e-09, cumulative = -9.6843e-07
DICPCG:  Solving for p, Initial residual = 0.00114646, Final residual = 8.04e-07, No Iterations 58
time step continuity errors : sum local = 7.15052e-10, global = 2.50706e-11, cumulative = -9.68405e-07
ExecutionTime = 5.42 s  ClockTime = 5 s

Courant Number mean: 0.0387721 max: 0.420903
Time = 0.00033

DICPCG:  Solving for cellMotionUx, Initial residual = 3.42202e-06, Final residual = 7.11738e-09, No Iterations 18
DICPCG:  Solving for pcorr, Initial residual = 1, Final residual = 0.00965161, No Iterations 13
time step continuity errors : sum local = 6.9014e-12, global = 3.48809e-13, cumulative = -9.68405e-07
DILUPBiCG:  Solving for Ux, Initial residual = 0.00308523, Final residual = 7.25717e-06, No Iterations 1
DILUPBiCG:  Solving for Uy, Initial residual = 0.00318861, Final residual = 2.89331e-07, No Iterations 2
DILUPBiCG:  Solving for Uz, Initial residual = 0.00994825, Final residual = 7.33156e-06, No Iterations 1
DICPCG:  Solving for p, Initial residual = 0.00776437, Final residual = 0.000378852, No Iterations 8
time step continuity errors : sum local = 3.35352e-07, global = 1.30543e-09, cumulative = -9.671e-07
DICPCG:  Solving for p, Initial residual = 0.00114029, Final residual = 8.56481e-07, No Iterations 58
time step continuity errors : sum local = 7.56547e-10, global = 2.97921e-11, cumulative = -9.6707e-07
ExecutionTime = 5.5 s  ClockTime = 5 s

Courant Number mean: 0.0387952 max: 0.420741
Time = 0.000335

DICPCG:  Solving for cellMotionUx, Initial residual = 3.38311e-06, Final residual = 7.11392e-09, No Iterations 18
DICPCG:  Solving for pcorr, Initial residual = 1, Final residual = 0.00998142, No Iterations 13
time step continuity errors : sum local = 7.55141e-12, global = 4.01215e-13, cumulative = -9.67069e-07
DILUPBiCG:  Solving for Ux, Initial residual = 0.0030663, Final residual = 6.9548e-06, No Iterations 1
DILUPBiCG:  Solving for Uy, Initial residual = 0.00318135, Final residual = 3.16535e-07, No Iterations 2
DILUPBiCG:  Solving for Uz, Initial residual = 0.0103184, Final residual = 7.07726e-06, No Iterations 1
DICPCG:  Solving for p, Initial residual = 0.00775424, Final residual = 0.000379033, No Iterations 8
time step continuity errors : sum local = 3.33282e-07, global = 1.28786e-09, cumulative = -9.65782e-07
DICPCG:  Solving for p, Initial residual = 0.00113236, Final residual = 9.21334e-07, No Iterations 58
time step continuity errors : sum local = 8.08461e-10, global = 3.42565e-11, cumulative = -9.65747e-07
ExecutionTime = 5.58 s  ClockTime = 5 s

Courant Number mean: 0.0388177 max: 0.420661
Time = 0.00034

DICPCG:  Solving for cellMotionUx, Initial residual = 3.34484e-06, Final residual = 7.1105e-09, No Iterations 18
DICPCG:  Solving for pcorr, Initial residual = 1, Final residual = 0.00783329, No Iterations 14
time step continuity errors : sum local = 6.3329e-12, global = 4.95966e-13, cumulative = -9.65747e-07
DILUPBiCG:  Solving for Ux, Initial residual = 0.00305249, Final residual = 7.7794e-06, No Iterations 1
DILUPBiCG:  Solving for Uy, Initial residual = 0.00317499, Final residual = 3.57779e-07, No Iterations 2
DILUPBiCG:  Solving for Uz, Initial residual = 0.00993004, Final residual = 7.62851e-06, No Iterations 1
DICPCG:  Solving for p, Initial residual = 0.0077253, Final residual = 0.000379764, No Iterations 8
time step continuity errors : sum local = 3.31751e-07, global = 1.27109e-09, cumulative = -9.64476e-07
DICPCG:  Solving for p, Initial residual = 0.00112593, Final residual = 9.81064e-07, No Iterations 58
time step continuity errors : sum local = 8.55255e-10, global = 3.69137e-11, cumulative = -9.64439e-07
ExecutionTime = 5.66 s  ClockTime = 5 s

Courant Number mean: 0.0388404 max: 0.420656
Time = 0.000345

DICPCG:  Solving for cellMotionUx, Initial residual = 3.30718e-06, Final residual = 7.10714e-09, No Iterations 18
DICPCG:  Solving for pcorr, Initial residual = 1, Final residual = 0.00827494, No Iterations 14
time step continuity errors : sum local = 7.07718e-12, global = 5.71789e-13, cumulative = -9.64438e-07
DILUPBiCG:  Solving for Ux, Initial residual = 0.0030406, Final residual = 9.1546e-06, No Iterations 1
DILUPBiCG:  Solving for Uy, Initial residual = 0.00316705, Final residual = 4.17074e-07, No Iterations 2
DILUPBiCG:  Solving for Uz, Initial residual = 0.00994647, Final residual = 7.07153e-06, No Iterations 1
DICPCG:  Solving for p, Initial residual = 0.00768042, Final residual = 0.000380966, No Iterations 8
time step continuity errors : sum local = 3.30719e-07, global = 1.25548e-09, cumulative = -9.63183e-07
DICPCG:  Solving for p, Initial residual = 0.00111764, Final residual = 7.65389e-07, No Iterations 59
time step continuity errors : sum local = 6.63193e-10, global = 2.3743e-11, cumulative = -9.63159e-07
ExecutionTime = 5.74 s  ClockTime = 5 s

Courant Number mean: 0.0388661 max: 0.420721
Time = 0.00035

DICPCG:  Solving for cellMotionUx, Initial residual = 3.27004e-06, Final residual = 7.10395e-09, No Iterations 18
DICPCG:  Solving for pcorr, Initial residual = 1, Final residual = 0.00872363, No Iterations 13
time step continuity errors : sum local = 5.78545e-12, global = 2.65803e-13, cumulative = -9.63159e-07
DILUPBiCG:  Solving for Ux, Initial residual = 0.0030267, Final residual = 1.90708e-07, No Iterations 2
DILUPBiCG:  Solving for Uy, Initial residual = 0.00315494, Final residual = 4.96878e-07, No Iterations 2
[...]
DILUPBiCG:  Solving for Uz, Initial residual = 0.0291307, Final residual = 1.83531e-06, No Iterations 2
DICPCG:  Solving for p, Initial residual = 0.00409222, Final residual = 0.000199337, No Iterations 18
time step continuity errors : sum local = 1.09386e-07, global = 2.35036e-09, cumulative = 4.05342e-07
DICPCG:  Solving for p, Initial residual = 0.000685676, Final residual = 9.51944e-07, No Iterations 64
time step continuity errors : sum local = 5.23057e-10, global = 5.51386e-12, cumulative = 4.05348e-07
ExecutionTime = 49.32 s  ClockTime = 49 s

Courant Number mean: 0.0609647 max: 0.611149
Time = 0.00292

DICPCG:  Solving for cellMotionUx, Initial residual = 3.33649e-06, Final residual = 9.13332e-09, No Iterations 27
DICPCG:  Solving for pcorr, Initial residual = 1, Final residual = 0.00887762, No Iterations 15
time step continuity errors : sum local = 4.6435e-12, global = 1.31627e-13, cumulative = 4.05348e-07
DILUPBiCG:  Solving for Ux, Initial residual = 0.00127059, Final residual = 3.39317e-07, No Iterations 2
DILUPBiCG:  Solving for Uy, Initial residual = 0.00240155, Final residual = 3.10842e-06, No Iterations 2
DILUPBiCG:  Solving for Uz, Initial residual = 0.0291214, Final residual = 1.67429e-06, No Iterations 2
DICPCG:  Solving for p, Initial residual = 0.00410991, Final residual = 0.000203023, No Iterations 18
time step continuity errors : sum local = 1.11606e-07, global = 2.3101e-09, cumulative = 4.07658e-07
DICPCG:  Solving for p, Initial residual = 0.000693961, Final residual = 9.84215e-07, No Iterations 64
time step continuity errors : sum local = 5.41767e-10, global = 4.37894e-12, cumulative = 4.07663e-07
ExecutionTime = 49.41 s  ClockTime = 49 s

Courant Number mean: 0.0611207 max: 0.616971
Time = 0.002925

DICPCG:  Solving for cellMotionUx, Initial residual = 3.38382e-06, Final residual = 9.4433e-09, No Iterations 27
DICPCG:  Solving for pcorr, Initial residual = 1, Final residual = 0.00993012, No Iterations 14
time step continuity errors : sum local = 5.37982e-12, global = 4.8063e-14, cumulative = 4.07663e-07
DILUPBiCG:  Solving for Ux, Initial residual = 0.00127131, Final residual = 3.23097e-07, No Iterations 2
DILUPBiCG:  Solving for Uy, Initial residual = 0.00239695, Final residual = 3.01349e-06, No Iterations 2
DILUPBiCG:  Solving for Uz, Initial residual = 0.0291414, Final residual = 1.61529e-06, No Iterations 2
DICPCG:  Solving for p, Initial residual = 0.00412792, Final residual = 0.000172072, No Iterations 19
time step continuity errors : sum local = 9.4763e-08, global = 7.2753e-10, cumulative = 4.0839e-07
DICPCG:  Solving for p, Initial residual = 0.000681904, Final residual = 9.033e-07, No Iterations 64
time step continuity errors : sum local = 4.98145e-10, global = 3.59722e-12, cumulative = 4.08394e-07
ExecutionTime = 49.5 s  ClockTime = 49 s

Courant Number mean: 0.0612787 max: 0.622903
Time = 0.00293

DICPCG:  Solving for cellMotionUx, Initial residual = 3.43244e-06, Final residual = 9.64785e-09, No Iterations 27
DICPCG:  Solving for pcorr, Initial residual = 1, Final residual = 0.00758505, No Iterations 14
time step continuity errors : sum local = 3.77846e-12, global = -8.30719e-14, cumulative = 4.08394e-07
DILUPBiCG:  Solving for Ux, Initial residual = 0.00127211, Final residual = 3.061e-07, No Iterations 2
DILUPBiCG:  Solving for Uy, Initial residual = 0.00239239, Final residual = 2.92755e-06, No Iterations 2
DILUPBiCG:  Solving for Uz, Initial residual = 0.0293358, Final residual = 2.26431e-06, No Iterations 2
DICPCG:  Solving for p, Initial residual = 0.00414895, Final residual = 0.000175824, No Iterations 19
time step continuity errors : sum local = 9.70095e-08, global = 6.42469e-10, cumulative = 4.09036e-07
DICPCG:  Solving for p, Initial residual = 0.000692004, Final residual = 8.85946e-07, No Iterations 64
time step continuity errors : sum local = 4.89506e-10, global = 2.71146e-12, cumulative = 4.09039e-07
ExecutionTime = 49.59 s  ClockTime = 50 s

Courant Number mean: 0.0614391 max: 0.628948
Time = 0.002935

DICPCG:  Solving for cellMotionUx, Initial residual = 3.48215e-06, Final residual = 9.90371e-09, No Iterations 27
DICPCG:  Solving for pcorr, Initial residual = 1, Final residual = 0.00756179, No Iterations 14
time step continuity errors : sum local = 3.70155e-12, global = -6.90498e-14, cumulative = 4.09039e-07
DILUPBiCG:  Solving for Ux, Initial residual = 0.00127324, Final residual = 2.88539e-07, No Iterations 2
DILUPBiCG:  Solving for Uy, Initial residual = 0.00238761, Final residual = 2.8484e-06, No Iterations 2
DILUPBiCG:  Solving for Uz, Initial residual = 0.0292522, Final residual = 1.64261e-06, No Iterations 2
DICPCG:  Solving for p, Initial residual = 0.0041671, Final residual = 0.000188183, No Iterations 19
time step continuity errors : sum local = 1.04031e-07, global = 6.79623e-10, cumulative = 4.09718e-07
DICPCG:  Solving for p, Initial residual = 0.00070424, Final residual = 9.24118e-07, No Iterations 64
time step continuity errors : sum local = 5.11619e-10, global = 1.21168e-12, cumulative = 4.0972e-07
ExecutionTime = 49.68 s  ClockTime = 50 s

Courant Number mean: 0.0616016 max: 0.635109
Time = 0.00294

DICPCG:  Solving for cellMotionUx, Initial residual = 3.53328e-06, Final residual = 4.81988e-09, No Iterations 28
DICPCG:  Solving for pcorr, Initial residual = 1, Final residual = 0.00713527, No Iterations 14
time step continuity errors : sum local = 3.65054e-12, global = -6.07132e-14, cumulative = 4.0972e-07
DILUPBiCG:  Solving for Ux, Initial residual = 0.00127488, Final residual = 2.70285e-07, No Iterations 2
DILUPBiCG:  Solving for Uy, Initial residual = 0.00238245, Final residual = 2.77591e-06, No Iterations 2
DILUPBiCG:  Solving for Uz, Initial residual = 0.0283363, Final residual = 1.62247e-06, No Iterations 2
DICPCG:  Solving for p, Initial residual = 0.00418597, Final residual = 0.000201294, No Iterations 19
time step continuity errors : sum local = 1.11507e-07, global = 6.61972e-10, cumulative = 4.10381e-07
DICPCG:  Solving for p, Initial residual = 0.000716555, Final residual = 8.86299e-07, No Iterations 64
time step continuity errors : sum local = 4.91713e-10, global = -7.23634e-15, cumulative = 4.10381e-07
ExecutionTime = 49.77 s  ClockTime = 50 s

Courant Number mean: 0.0617663 max: 0.641389
Time = 0.002945

DICPCG:  Solving for cellMotionUx, Initial residual = 3.58614e-06, Final residual = 5.0629e-09, No Iterations 28
DICPCG:  Solving for pcorr, Initial residual = 1, Final residual = 0.00693221, No Iterations 14
time step continuity errors : sum local = 3.40866e-12, global = -4.607e-14, cumulative = 4.10381e-07
DILUPBiCG:  Solving for Ux, Initial residual = 0.00127662, Final residual = 2.51251e-07, No Iterations 2
DILUPBiCG:  Solving for Uy, Initial residual = 0.00237706, Final residual = 2.70944e-06, No Iterations 2
DILUPBiCG:  Solving for Uz, Initial residual = 0.0296132, Final residual = 1.98167e-06, No Iterations 2
DICPCG:  Solving for p, Initial residual = 0.0042064, Final residual = 0.000166931, No Iterations 20
time step continuity errors : sum local = 9.26745e-08, global = 2.14302e-10, cumulative = 4.10596e-07
DICPCG:  Solving for p, Initial residual = 0.000709362, Final residual = 8.04152e-07, No Iterations 64
time step continuity errors : sum local = 4.47151e-10, global = 2.39768e-13, cumulative = 4.10596e-07
ExecutionTime = 49.85 s  ClockTime = 50 s

Courant Number mean: 0.0619334 max: 0.647794
Time = 0.00295

DICPCG:  Solving for cellMotionUx, Initial residual = 3.63998e-06, Final residual = 5.15742e-09, No Iterations 28
DICPCG:  Solving for pcorr, Initial residual = 1, Final residual = 0.00955975, No Iterations 13
time step continuity errors : sum local = 4.27465e-12, global = -7.28086e-14, cumulative = 4.10596e-07
DILUPBiCG:  Solving for Ux, Initial residual = 0.00127839, Final residual = 2.31325e-07, No Iterations 2
DILUPBiCG:  Solving for Uy, Initial residual = 0.00237152, Final residual = 2.64804e-06, No Iterations 2
DILUPBiCG:  Solving for Uz, Initial residual = 0.0288163, Final residual = 1.85863e-06, No Iterations 2
DICPCG:  Solving for p, Initial residual = 0.00423184, Final residual = 0.000169768, No Iterations 20
time step continuity errors : sum local = 9.44675e-08, global = 1.77529e-10, cumulative = 4.10773e-07
DICPCG:  Solving for p, Initial residual = 0.00071896, Final residual = 7.89672e-07, No Iterations 64
time step continuity errors : sum local = 4.4014e-10, global = -1.30148e-12, cumulative = 4.10772e-07
ExecutionTime = 49.94 s  ClockTime = 50 s

Courant Number mean: 0.0621028 max: 0.654325
Time = 0.002955

DICPCG:  Solving for cellMotionUx, Initial residual = 3.6953e-06, Final residual = 5.44066e-09, No Iterations 28
DICPCG:  Solving for pcorr, Initial residual = 1, Final residual = 0.00912248, No Iterations 13
time step continuity errors : sum local = 4.01517e-12, global = -4.41445e-14, cumulative = 4.10772e-07
DILUPBiCG:  Solving for Ux, Initial residual = 0.00128035, Final residual = 2.11004e-07, No Iterations 2
DILUPBiCG:  Solving for Uy, Initial residual = 0.00236567, Final residual = 2.59155e-06, No Iterations 2
DILUPBiCG:  Solving for Uz, Initial residual = 0.0293346, Final residual = 1.89693e-06, No Iterations 2
DICPCG:  Solving for p, Initial residual = 0.00425545, Final residual = 0.000211438, No Iterations 19
time step continuity errors : sum local = 1.17936e-07, global = 3.35539e-10, cumulative = 4.11108e-07
DICPCG:  Solving for p, Initial residual = 0.000745832, Final residual = 7.71407e-07, No Iterations 64
time step continuity errors : sum local = 4.31008e-10, global = -4.02391e-12, cumulative = 4.11104e-07
ExecutionTime = 50.03 s  ClockTime = 50 s

Courant Number mean: 0.0622747 max: 0.660989
Time = 0.00296

DICPCG:  Solving for cellMotionUx, Initial residual = 3.752e-06, Final residual = 9.49365e-09, No Iterations 27
DICPCG:  Solving for pcorr, Initial residual = 1, Final residual = 0.00815032, No Iterations 13
time step continuity errors : sum local = 3.51285e-12, global = 9.66077e-15, cumulative = 4.11104e-07
DILUPBiCG:  Solving for Ux, Initial residual = 0.00128252, Final residual = 1.90143e-07, No Iterations 2
DILUPBiCG:  Solving for Uy, Initial residual = 0.00235956, Final residual = 2.53971e-06, No Iterations 2
DILUPBiCG:  Solving for Uz, Initial residual = 0.0295035, Final residual = 1.51216e-06, No Iterations 2
DICPCG:  Solving for p, Initial residual = 0.00427729, Final residual = 0.000179134, No Iterations 20
time step continuity errors : sum local = 1.00168e-07, global = 3.21051e-11, cumulative = 4.11136e-07
DICPCG:  Solving for p, Initial residual = 0.000739857, Final residual = 7.66405e-07, No Iterations 64
time step continuity errors : sum local = 4.29323e-10, global = -4.16628e-12, cumulative = 4.11132e-07
ExecutionTime = 50.11 s  ClockTime = 50 s

Courant Number mean: 0.0624495 max: 0.667788
Time = 0.002965

DICPCG:  Solving for cellMotionUx, Initial residual = 3.81028e-06, Final residual = 9.93257e-09, No Iterations 26
DICPCG:  Solving for pcorr, Initial residual = 1, Final residual = 0.00786769, No Iterations 13
time step continuity errors : sum local = 3.37778e-12, global = 1.48216e-14, cumulative = 4.11132e-07
DILUPBiCG:  Solving for Ux, Initial residual = 0.00128477, Final residual = 1.69034e-07, No Iterations 2
DILUPBiCG:  Solving for Uy, Initial residual = 0.00235355, Final residual = 2.49207e-06, No Iterations 2
DILUPBiCG:  Solving for Uz, Initial residual = 0.0290024, Final residual = 1.91864e-06, No Iterations 2
DICPCG:  Solving for p, Initial residual = 0.00430642, Final residual = 0.000183337, No Iterations 20
time step continuity errors : sum local = 1.02786e-07, global = -9.89228e-12, cumulative = 4.11122e-07
DICPCG:  Solving for p, Initial residual = 0.000750901, Final residual = 7.65018e-07, No Iterations 64
time step continuity errors : sum local = 4.29693e-10, global = -5.67912e-12, cumulative = 4.11116e-07
ExecutionTime = 50.2 s  ClockTime = 50 s

Courant Number mean: 0.0626275 max: 0.674727
Time = 0.00297

DICPCG:  Solving for cellMotionUx, Initial residual = 3.87066e-06, Final residual = 9.52544e-09, No Iterations 27
DICPCG:  Solving for pcorr, Initial residual = 1, Final residual = 0.00797736, No Iterations 13
time step continuity errors : sum local = 3.42781e-12, global = 4.7627e-14, cumulative = 4.11116e-07
DILUPBiCG:  Solving for Ux, Initial residual = 0.00128727, Final residual = 1.49262e-07, No Iterations 2
DILUPBiCG:  Solving for Uy, Initial residual = 0.00234753, Final residual = 2.4485e-06, No Iterations 2
DILUPBiCG:  Solving for Uz, Initial residual = 0.0284656, Final residual = 1.58755e-06, No Iterations 2
DICPCG:  Solving for p, Initial residual = 0.00433136, Final residual = 0.000187042, No Iterations 20
time step continuity errors : sum local = 1.05162e-07, global = -6.79349e-11, cumulative = 4.11048e-07
DICPCG:  Solving for p, Initial residual = 0.000761783, Final residual = 7.86521e-07, No Iterations 64
time step continuity errors : sum local = 4.43127e-10, global = -7.57212e-12, cumulative = 4.11041e-07
ExecutionTime = 50.28 s  ClockTime = 50 s

Courant Number mean: 0.0628081 max: 0.68181
Time = 0.002975

DICPCG:  Solving for cellMotionUx, Initial residual = 3.93161e-06, Final residual = 9.32751e-09, No Iterations 26
DICPCG:  Solving for pcorr, Initial residual = 1, Final residual = 0.00844419, No Iterations 13
time step continuity errors : sum local = 3.74185e-12, global = 5.76736e-14, cumulative = 4.11041e-07
DILUPBiCG:  Solving for Ux, Initial residual = 0.00128983, Final residual = 1.30853e-07, No Iterations 2
DILUPBiCG:  Solving for Uy, Initial residual = 0.00234138, Final residual = 2.40845e-06, No Iterations 2
DILUPBiCG:  Solving for Uz, Initial residual = 0.0309866, Final residual = 1.55449e-06, No Iterations 2
DICPCG:  Solving for p, Initial residual = 0.00435578, Final residual = 0.000190047, No Iterations 20
time step continuity errors : sum local = 1.07196e-07, global = -1.17441e-10, cumulative = 4.10923e-07
DICPCG:  Solving for p, Initial residual = 0.000772681, Final residual = 8.32078e-07, No Iterations 64
time step continuity errors : sum local = 4.70342e-10, global = -9.61012e-12, cumulative = 4.10914e-07
ExecutionTime = 50.37 s  ClockTime = 50 s

Courant Number mean: 0.0629916 max: 0.689043
Time = 0.00298

DICPCG:  Solving for cellMotionUx, Initial residual = 3.99557e-06, Final residual = 8.82488e-09, No Iterations 26
DICPCG:  Solving for pcorr, Initial residual = 1, Final residual = 0.00930653, No Iterations 13
time step continuity errors : sum local = 4.37725e-12, global = 5.58526e-14, cumulative = 4.10914e-07
DILUPBiCG:  Solving for Ux, Initial residual = 0.00129242, Final residual = 1.14775e-07, No Iterations 2
DILUPBiCG:  Solving for Uy, Initial residual = 0.00233554, Final residual = 2.37228e-06, No Iterations 2
DILUPBiCG:  Solving for Uz, Initial residual = 0.0305199, Final residual = 1.96903e-06, No Iterations 2
DICPCG:  Solving for p, Initial residual = 0.00438129, Final residual = 0.000190089, No Iterations 20
time step continuity errors : sum local = 1.07575e-07, global = -9.36133e-11, cumulative = 4.1082e-07
DICPCG:  Solving for p, Initial residual = 0.000781817, Final residual = 9.44744e-07, No Iterations 64
time step continuity errors : sum local = 5.35827e-10, global = -1.14349e-11, cumulative = 4.10809e-07
ExecutionTime = 50.45 s  ClockTime = 50 s

Courant Number mean: 0.0631781 max: 0.69643
Time = 0.002985

DICPCG:  Solving for cellMotionUx, Initial residual = 4.06081e-06, Final residual = 8.64962e-09, No Iterations 26
DICPCG:  Solving for pcorr, Initial residual = 1, Final residual = 0.00954661, No Iterations 13
time step continuity errors : sum local = 5.11533e-12, global = 3.43469e-14, cumulative = 4.10809e-07
DILUPBiCG:  Solving for Ux, Initial residual = 0.00129512, Final residual = 1.0375e-07, No Iterations 2
DILUPBiCG:  Solving for Uy, Initial residual = 0.0023296, Final residual = 2.33976e-06, No Iterations 2
DILUPBiCG:  Solving for Uz, Initial residual = 0.0297079, Final residual = 2.04408e-06, No Iterations 2
DICPCG:  Solving for p, Initial residual = 0.0044081, Final residual = 0.000195123, No Iterations 20
time step continuity errors : sum local = 1.10796e-07, global = -1.73394e-10, cumulative = 4.10635e-07
DICPCG:  Solving for p, Initial residual = 0.000794513, Final residual = 7.04441e-07, No Iterations 65
time step continuity errors : sum local = 4.00904e-10, global = -8.64524e-12, cumulative = 4.10627e-07
ExecutionTime = 50.53 s  ClockTime = 50 s

Courant Number mean: 0.0633679 max: 0.703977
Time = 0.00299

DICPCG:  Solving for cellMotionUx, Initial residual = 4.12792e-06, Final residual = 8.44765e-09, No Iterations 26
DICPCG:  Solving for pcorr, Initial residual = 1, Final residual = 0.00961746, No Iterations 13
time step continuity errors : sum local = 3.85568e-12, global = 3.76301e-15, cumulative = 4.10627e-07
DILUPBiCG:  Solving for Ux, Initial residual = 0.00129794, Final residual = 1.20885e-07, No Iterations 2
DILUPBiCG:  Solving for Uy, Initial residual = 0.00232368, Final residual = 2.31032e-06, No Iterations 2
DILUPBiCG:  Solving for Uz, Initial residual = 0.0289206, Final residual = 2.02097e-06, No Iterations 2
DICPCG:  Solving for p, Initial residual = 0.0044369, Final residual = 0.000204168, No Iterations 20
time step continuity errors : sum local = 1.16332e-07, global = -2.95794e-10, cumulative = 4.10331e-07
DICPCG:  Solving for p, Initial residual = 0.000808944, Final residual = 7.71493e-07, No Iterations 65
time step continuity errors : sum local = 4.40599e-10, global = -9.43417e-12, cumulative = 4.10321e-07
ExecutionTime = 50.62 s  ClockTime = 51 s

Courant Number mean: 0.0635607 max: 0.711688
Time = 0.002995

DICPCG:  Solving for cellMotionUx, Initial residual = 4.19691e-06, Final residual = 8.34321e-09, No Iterations 26
DICPCG:  Solving for pcorr, Initial residual = 1, Final residual = 0.00951734, No Iterations 13
time step continuity errors : sum local = 4.19333e-12, global = 4.55728e-15, cumulative = 4.10321e-07
DILUPBiCG:  Solving for Ux, Initial residual = 0.00130124, Final residual = 1.51099e-07, No Iterations 2
DILUPBiCG:  Solving for Uy, Initial residual = 0.00231797, Final residual = 2.2838e-06, No Iterations 2
DILUPBiCG:  Solving for Uz, Initial residual = 0.029232, Final residual = 2.55779e-06, No Iterations 2
DICPCG:  Solving for p, Initial residual = 0.00446815, Final residual = 0.000206617, No Iterations 20
time step continuity errors : sum local = 1.18141e-07, global = -3.25002e-10, cumulative = 4.09996e-07
DICPCG:  Solving for p, Initial residual = 0.000820813, Final residual = 9.65563e-07, No Iterations 65
time step continuity errors : sum local = 5.534e-10, global = -1.16458e-11, cumulative = 4.09985e-07
ExecutionTime = 50.7 s  ClockTime = 51 s

Courant Number mean: 0.0637572 max: 0.71957
Time = 0.003

DICPCG:  Solving for cellMotionUx, Initial residual = 4.2679e-06, Final residual = 8.28434e-09, No Iterations 26
DICPCG:  Solving for pcorr, Initial residual = 1, Final residual = 0.00947954, No Iterations 13
time step continuity errors : sum local = 5.24598e-12, global = 1.05789e-14, cumulative = 4.09985e-07
DILUPBiCG:  Solving for Ux, Initial residual = 0.00130484, Final residual = 1.86034e-07, No Iterations 2
DILUPBiCG:  Solving for Uy, Initial residual = 0.00231234, Final residual = 2.2605e-06, No Iterations 2
DILUPBiCG:  Solving for Uz, Initial residual = 0.0314549, Final residual = 1.83617e-06, No Iterations 2
DICPCG:  Solving for p, Initial residual = 0.00450454, Final residual = 0.000211819, No Iterations 20
time step continuity errors : sum local = 1.21549e-07, global = -3.91553e-10, cumulative = 4.09593e-07
DICPCG:  Solving for p, Initial residual = 0.000833912, Final residual = 5.63589e-07, No Iterations 66
time step continuity errors : sum local = 3.24189e-10, global = -3.65288e-12, cumulative = 4.09589e-07
ExecutionTime = 50.8 s  ClockTime = 51 s

End

