/*---------------------------------------------------------------------------*\
| =========                 |                                                 |
| \\      /  F ield         | OpenFOAM: The Open Source CFD Toolbox           |
|  \\    /   O peration     | Version:  1.4.1                                 |
|   \\  /    A nd           | Web:      http://www.openfoam.org               |
|    \\/     M anipulation  |                                                 |
\*---------------------------------------------------------------------------*/
/*           Windows porting by Symscape: http://www.symscape.com/           *\
\*---------------------------------------------------------------------------*/

Exec   : icoDyMFoam . movingCone 
Date   : Mar 26 2008
Time   : 10:20:16
Host   : HILL
PID    : 848
Root   : C:/projects/openfoam/cases-1.4.1/run/tutorials/icoDyMFoam
Case   : movingCone
Nprocs : 1
Create time

Create mesh for time = 0

Selecting dynamicFvMesh dynamicMotionSolverFvMesh
Selecting motion solver: velocityComponentLaplacian
Selecting motion diffusion: directional
Reading transportProperties

Reading field p

Reading field U

Reading/calculating face flux field phi

Reading field rAU if present


Starting time loop

Courant Number mean: 0 max: 0.3
Time = 5e-06

DICPCG:  Solving for cellMotionUx, Initial residual = 1, Final residual = 7.49016e-09, No Iterations 41
DICPCG:  Solving for pcorr, Initial residual = 1, Final residual = 0.00667693, No Iterations 56
time step continuity errors : sum local = 6.71014e-06, global = -2.72801e-07, cumulative = -2.72801e-07
DILUPBiCG:  Solving for Ux, Initial residual = 1, Final residual = 7.82288e-06, No Iterations 2
DILUPBiCG:  Solving for Uy, Initial residual = 0, Final residual = 0, No Iterations 0
DILUPBiCG:  Solving for Uz, Initial residual = 0, Final residual = 0, No Iterations 0
DICPCG:  Solving for p, Initial residual = 1, Final residual = 0.0432287, No Iterations 51
time step continuity errors : sum local = 4.35178e-05, global = -1.54102e-06, cumulative = -1.81382e-06
DICPCG:  Solving for p, Initial residual = 0.00698879, Final residual = 9.00003e-07, No Iterations 62
time step continuity errors : sum local = 1.0762e-07, global = 1.71678e-09, cumulative = -1.8121e-06
ExecutionTime = 0.516 s  ClockTime = 1 s

Courant Number mean: 0.0375819 max: 0.372289
Time = 1e-05

DICPCG:  Solving for cellMotionUx, Initial residual = 7.1381e-06, Final residual = 9.37311e-09, No Iterations 18
DICPCG:  Solving for pcorr, Initial residual = 1, Final residual = 0.00963553, No Iterations 11
time step continuity errors : sum local = 1.03698e-09, global = -1.82411e-11, cumulative = -1.81212e-06
DILUPBiCG:  Solving for Ux, Initial residual = 0.344507, Final residual = 1.10947e-06, No Iterations 2
DILUPBiCG:  Solving for Uy, Initial residual = 0.325978, Final residual = 2.29455e-06, No Iterations 2
DILUPBiCG:  Solving for Uz, Initial residual = 0.4174, Final residual = 4.28894e-07, No Iterations 2
DICPCG:  Solving for p, Initial residual = 0.0111126, Final residual = 0.000478805, No Iterations 50
time step continuity errors : sum local = 5.54552e-05, global = 5.9727e-07, cumulative = -1.21485e-06
DICPCG:  Solving for p, Initial residual = 0.138773, Final residual = 8.76473e-07, No Iterations 67
time step continuity errors : sum local = 5.12566e-09, global = 2.61693e-11, cumulative = -1.21482e-06
ExecutionTime = 0.641 s  ClockTime = 1 s

Courant Number mean: 0.0376431 max: 0.356495
Time = 1.5e-05

DICPCG:  Solving for cellMotionUx, Initial residual = 7.04931e-06, Final residual = 9.36079e-09, No Iterations 18
DICPCG:  Solving for pcorr, Initial residual = 1, Final residual = 0.00894171, No Iterations 12
time step continuity errors : sum local = 4.58322e-11, global = -9.13819e-14, cumulative = -1.21482e-06
DILUPBiCG:  Solving for Ux, Initial residual = 0.0290087, Final residual = 2.48837e-07, No Iterations 2
DILUPBiCG:  Solving for Uy, Initial residual = 0.0184708, Final residual = 3.23485e-07, No Iterations 2
DILUPBiCG:  Solving for Uz, Initial residual = 0.0378757, Final residual = 7.36544e-08, No Iterations 2
DICPCG:  Solving for p, Initial residual = 0.0551126, Final residual = 0.00188509, No Iterations 47
time step continuity errors : sum local = 1.51049e-05, global = 7.11955e-07, cumulative = -5.02867e-07
DICPCG:  Solving for p, Initial residual = 0.029561, Final residual = 8.6607e-07, No Iterations 66
time step continuity errors : sum local = 2.85735e-09, global = -2.63194e-11, cumulative = -5.02894e-07
ExecutionTime = 0.75 s  ClockTime = 1 s

Courant Number mean: 0.0375865 max: 0.364855
Time = 2e-05

DICPCG:  Solving for cellMotionUx, Initial residual = 6.96661e-06, Final residual = 9.09046e-09, No Iterations 18
DICPCG:  Solving for pcorr, Initial residual = 1, Final residual = 0.00797438, No Iterations 13
time step continuity errors : sum local = 2.27856e-11, global = -6.29524e-13, cumulative = -5.02894e-07
DILUPBiCG:  Solving for Ux, Initial residual = 0.0130482, Final residual = 1.1051e-07, No Iterations 2
DILUPBiCG:  Solving for Uy, Initial residual = 0.008902, Final residual = 2.57169e-07, No Iterations 2
DILUPBiCG:  Solving for Uz, Initial residual = 0.0202503, Final residual = 7.5944e-08, No Iterations 2
DICPCG:  Solving for p, Initial residual = 0.0793095, Final residual = 0.00386929, No Iterations 44
time step continuity errors : sum local = 1.01878e-05, global = 8.95744e-08, cumulative = -4.1332e-07
DICPCG:  Solving for p, Initial residual = 0.0173811, Final residual = 7.21039e-07, No Iterations 64
time step continuity errors : sum local = 1.17039e-09, global = 2.24245e-11, cumulative = -4.13297e-07
ExecutionTime = 0.875 s  ClockTime = 1 s

Courant Number mean: 0.037558 max: 0.381641
Time = 2.5e-05

DICPCG:  Solving for cellMotionUx, Initial residual = 6.88612e-06, Final residual = 8.91753e-09, No Iterations 18
DICPCG:  Solving for pcorr, Initial residual = 1, Final residual = 0.00819065, No Iterations 12
time step continuity errors : sum local = 9.58623e-12, global = -3.13346e-13, cumulative = -4.13298e-07
DILUPBiCG:  Solving for Ux, Initial residual = 0.0069336, Final residual = 8.57273e-08, No Iterations 2
DILUPBiCG:  Solving for Uy, Initial residual = 0.00527395, Final residual = 2.54009e-07, No Iterations 2
DILUPBiCG:  Solving for Uz, Initial residual = 0.0186026, Final residual = 2.889e-07, No Iterations 2
DICPCG:  Solving for p, Initial residual = 0.08905, Final residual = 0.00427716, No Iterations 14
time step continuity errors : sum local = 6.09952e-06, global = -7.10736e-07, cumulative = -1.12403e-06
DICPCG:  Solving for p, Initial residual = 0.00833778, Final residual = 6.36159e-07, No Iterations 61
time step continuity errors : sum local = 8.80401e-10, global = -1.83014e-12, cumulative = -1.12404e-06
ExecutionTime = 0.969 s  ClockTime = 1 s

Courant Number mean: 0.0375373 max: 0.396609
Time = 3e-05

DICPCG:  Solving for cellMotionUx, Initial residual = 6.80691e-06, Final residual = 8.59141e-09, No Iterations 18
DICPCG:  Solving for pcorr, Initial residual = 1, Final residual = 0.00690739, No Iterations 12
time step continuity errors : sum local = 6.08127e-12, global = 2.38491e-13, cumulative = -1.12404e-06
DILUPBiCG:  Solving for Ux, Initial residual = 0.00705151, Final residual = 8.87788e-08, No Iterations 2
DILUPBiCG:  Solving for Uy, Initial residual = 0.0043806, Final residual = 4.46607e-07, No Iterations 2
DILUPBiCG:  Solving for Uz, Initial residual = 0.0179605, Final residual = 1.89601e-07, No Iterations 2
DICPCG:  Solving for p, Initial residual = 0.0541696, Final residual = 0.00208197, No Iterations 4
time step continuity errors : sum local = 3.53171e-06, global = 7.13667e-08, cumulative = -1.05267e-06
DICPCG:  Solving for p, Initial residual = 0.00410282, Final residual = 8.25683e-07, No Iterations 59
time step continuity errors : sum local = 1.3702e-09, global = 4.80893e-11, cumulative = -1.05262e-06
ExecutionTime = 1.078 s  ClockTime = 1 s

Courant Number mean: 0.0375223 max: 0.410359
Time = 3.5e-05

DICPCG:  Solving for cellMotionUx, Initial residual = 6.72974e-06, Final residual = 8.45624e-09, No Iterations 18
DICPCG:  Solving for pcorr, Initial residual = 1, Final residual = 0.00634568, No Iterations 15
time step continuity errors : sum local = 8.69486e-12, global = 2.30774e-13, cumulative = -1.05262e-06
DILUPBiCG:  Solving for Ux, Initial residual = 0.00635707, Final residual = 7.77968e-08, No Iterations 2
DILUPBiCG:  Solving for Uy, Initial residual = 0.0044088, Final residual = 3.24638e-06, No Iterations 2
DILUPBiCG:  Solving for Uz, Initial residual = 0.0175451, Final residual = 4.87456e-07, No Iterations 2
DICPCG:  Solving for p, Initial residual = 0.0478963, Final residual = 0.00219536, No Iterations 3
time step continuity errors : sum local = 3.34829e-06, global = -9.3499e-09, cumulative = -1.06197e-06
DICPCG:  Solving for p, Initial residual = 0.00388682, Final residual = 9.0316e-07, No Iterations 59
time step continuity errors : sum local = 1.35129e-09, global = 4.55653e-11, cumulative = -1.06192e-06
ExecutionTime = 1.188 s  ClockTime = 1 s

Courant Number mean: 0.037511 max: 0.423006
Time = 4e-05

DICPCG:  Solving for cellMotionUx, Initial residual = 6.65427e-06, Final residual = 7.63133e-09, No Iterations 18
DICPCG:  Solving for pcorr, Initial residual = 1, Final residual = 0.00800334, No Iterations 10
time step continuity errors : sum local = 1.08148e-11, global = 4.5886e-13, cumulative = -1.06192e-06
DILUPBiCG:  Solving for Ux, Initial residual = 0.00609075, Final residual = 7.8113e-08, No Iterations 2
DILUPBiCG:  Solving for Uy, Initial residual = 0.00417424, Final residual = 6.14026e-07, No Iterations 2
DILUPBiCG:  Solving for Uz, Initial residual = 0.0164585, Final residual = 2.0693e-06, No Iterations 2
DICPCG:  Solving for p, Initial residual = 0.0404804, Final residual = 0.00166757, No Iterations 3
time step continuity errors : sum local = 2.42016e-06, global = 4.11984e-09, cumulative = -1.0578e-06
DICPCG:  Solving for p, Initial residual = 0.00334563, Final residual = 6.28391e-07, No Iterations 60
time step continuity errors : sum local = 8.97261e-10, global = 2.0248e-11, cumulative = -1.05778e-06
ExecutionTime = 1.281 s  ClockTime = 1 s

Courant Number mean: 0.0375055 max: 0.434445
Time = 4.5e-05

DICPCG:  Solving for cellMotionUx, Initial residual = 6.58043e-06, Final residual = 7.73015e-09, No Iterations 18
DICPCG:  Solving for pcorr, Initial residual = 1, Final residual = 0.00753364, No Iterations 12
time step continuity errors : sum local = 6.75964e-12, global = 3.09152e-13, cumulative = -1.05778e-06
DILUPBiCG:  Solving for Ux, Initial residual = 0.00577182, Final residual = 8.98398e-08, No Iterations 2
DILUPBiCG:  Solving for Uy, Initial residual = 0.00421001, Final residual = 3.25547e-07, No Iterations 2
DILUPBiCG:  Solving for Uz, Initial residual = 0.0162173, Final residual = 1.38128e-06, No Iterations 2
DICPCG:  Solving for p, Initial residual = 0.0360707, Final residual = 0.00161236, No Iterations 3
time step continuity errors : sum local = 2.22152e-06, global = -1.53735e-09, cumulative = -1.05932e-06
DICPCG:  Solving for p, Initial residual = 0.00324522, Final residual = 6.34265e-07, No Iterations 60
time step continuity errors : sum local = 8.64916e-10, global = 1.71172e-11, cumulative = -1.0593e-06
ExecutionTime = 1.391 s  ClockTime = 1 s

Courant Number mean: 0.0375048 max: 0.44461
Time = 5e-05

DICPCG:  Solving for cellMotionUx, Initial residual = 6.50786e-06, Final residual = 7.05531e-09, No Iterations 18
DICPCG:  Solving for pcorr, Initial residual = 1, Final residual = 0.00695857, No Iterations 12
time step continuity errors : sum local = 6.01858e-12, global = 2.98334e-13, cumulative = -1.0593e-06
DILUPBiCG:  Solving for Ux, Initial residual = 0.00555008, Final residual = 1.06952e-07, No Iterations 2
DILUPBiCG:  Solving for Uy, Initial residual = 0.00421143, Final residual = 2.41684e-07, No Iterations 2
DILUPBiCG:  Solving for Uz, Initial residual = 0.0154763, Final residual = 2.06768e-06, No Iterations 2
DICPCG:  Solving for p, Initial residual = 0.0319534, Final residual = 0.00100756, No Iterations 4
time step continuity errors : sum local = 1.35156e-06, global = 1.27504e-09, cumulative = -1.05803e-06
DICPCG:  Solving for p, Initial residual = 0.00283019, Final residual = 6.95716e-07, No Iterations 59
time step continuity errors : sum local = 9.25531e-10, global = 2.65667e-11, cumulative = -1.058e-06
ExecutionTime = 1.5 s  ClockTime = 2 s

Courant Number mean: 0.0375083 max: 0.453444
Time = 5.5e-05

DICPCG:  Solving for cellMotionUx, Initial residual = 6.43576e-06, Final residual = 8.03957e-09, No Iterations 18
DICPCG:  Solving for pcorr, Initial residual = 1, Final residual = 0.00833757, No Iterations 11
time step continuity errors : sum local = 7.71668e-12, global = 2.93328e-13, cumulative = -1.058e-06
DILUPBiCG:  Solving for Ux, Initial residual = 0.00533905, Final residual = 1.31961e-07, No Iterations 2
DILUPBiCG:  Solving for Uy, Initial residual = 0.00423544, Final residual = 2.16005e-07, No Iterations 2
DILUPBiCG:  Solving for Uz, Initial residual = 0.0149371, Final residual = 4.90014e-07, No Iterations 2
DICPCG:  Solving for p, Initial residual = 0.0286888, Final residual = 0.00101788, No Iterations 4
time step continuity errors : sum local = 1.32574e-06, global = -3.58872e-10, cumulative = -1.05836e-06
DICPCG:  Solving for p, Initial residual = 0.00278526, Final residual = 7.51093e-07, No Iterations 59
time step continuity errors : sum local = 9.70767e-10, global = 2.99291e-11, cumulative = -1.05833e-06
ExecutionTime = 1.594 s  ClockTime = 2 s

Courant Number mean: 0.037519 max: 0.460925
Time = 6e-05

DICPCG:  Solving for cellMotionUx, Initial residual = 6.36502e-06, Final residual = 7.47143e-09, No Iterations 18
DICPCG:  Solving for pcorr, Initial residual = 1, Final residual = 0.00755093, No Iterations 12
time step continuity errors : sum local = 7.33019e-12, global = 3.26474e-13, cumulative = -1.05833e-06
DILUPBiCG:  Solving for Ux, Initial residual = 0.00519413, Final residual = 1.65467e-07, No Iterations 2
DILUPBiCG:  Solving for Uy, Initial residual = 0.00424736, Final residual = 2.02555e-07, No Iterations 2
DILUPBiCG:  Solving for Uz, Initial residual = 0.0148841, Final residual = 5.72927e-07, No Iterations 2
DICPCG:  Solving for p, Initial residual = 0.0257774, Final residual = 0.0010075, No Iterations 4
time step continuity errors : sum local = 1.28005e-06, global = 4.09051e-10, cumulative = -1.05792e-06
DICPCG:  Solving for p, Initial residual = 0.00268949, Final residual = 7.42233e-07, No Iterations 59
time step continuity errors : sum local = 9.37063e-10, global = 2.8032e-11, cumulative = -1.05789e-06
ExecutionTime = 1.703 s  ClockTime = 2 s

Courant Number mean: 0.0375328 max: 0.467062
Time = 6.5e-05

DICPCG:  Solving for cellMotionUx, Initial residual = 6.29483e-06, Final residual = 7.74774e-09, No Iterations 18
DICPCG:  Solving for pcorr, Initial residual = 1, Final residual = 0.00979159, No Iterations 11
time step continuity errors : sum local = 9.17533e-12, global = 3.12113e-13, cumulative = -1.05789e-06
DILUPBiCG:  Solving for Ux, Initial residual = 0.00506459, Final residual = 2.12981e-07, No Iterations 2
DILUPBiCG:  Solving for Uy, Initial residual = 0.00426512, Final residual = 1.95285e-07, No Iterations 2
DILUPBiCG:  Solving for Uz, Initial residual = 0.0146238, Final residual = 2.50757e-07, No Iterations 2
DICPCG:  Solving for p, Initial residual = 0.0233216, Final residual = 0.00100127, No Iterations 4
time step continuity errors : sum local = 1.24319e-06, global = 3.61429e-11, cumulative = -1.05786e-06
DICPCG:  Solving for p, Initial residual = 0.00259802, Final residual = 7.51953e-07, No Iterations 59
time step continuity errors : sum local = 9.28375e-10, global = 2.77114e-11, cumulative = -1.05783e-06
ExecutionTime = 1.813 s  ClockTime = 2 s

Courant Number mean: 0.0375502 max: 0.471903
Time = 7e-05

DICPCG:  Solving for cellMotionUx, Initial residual = 6.22586e-06, Final residual = 7.28705e-09, No Iterations 18
DICPCG:  Solving for pcorr, Initial residual = 1, Final residual = 0.00796869, No Iterations 12
time step continuity errors : sum local = 7.39793e-12, global = 3.65634e-13, cumulative = -1.05783e-06
DILUPBiCG:  Solving for Ux, Initial residual = 0.00493161, Final residual = 2.87649e-07, No Iterations 2
DILUPBiCG:  Solving for Uy, Initial residual = 0.00428854, Final residual = 1.90983e-07, No Iterations 2
DILUPBiCG:  Solving for Uz, Initial residual = 0.0138884, Final residual = 1.13025e-07, No Iterations 2
DICPCG:  Solving for p, Initial residual = 0.0217902, Final residual = 0.0010056, No Iterations 4
time step continuity errors : sum local = 1.22369e-06, global = 2.04778e-10, cumulative = -1.05762e-06
DICPCG:  Solving for p, Initial residual = 0.00251501, Final residual = 7.56816e-07, No Iterations 59
time step continuity errors : sum local = 9.16461e-10, global = 2.72474e-11, cumulative = -1.0576e-06
ExecutionTime = 1.907 s  ClockTime = 2 s

Courant Number mean: 0.0375733 max: 0.475533
Time = 7.5e-05

DICPCG:  Solving for cellMotionUx, Initial residual = 6.15838e-06, Final residual = 7.46438e-09, No Iterations 18
DICPCG:  Solving for pcorr, Initial residual = 1, Final residual = 0.0081024, No Iterations 12
time step continuity errors : sum local = 7.42554e-12, global = 4.08501e-13, cumulative = -1.0576e-06
DILUPBiCG:  Solving for Ux, Initial residual = 0.00481803, Final residual = 4.59041e-07, No Iterations 2
DILUPBiCG:  Solving for Uy, Initial residual = 0.00431373, Final residual = 1.84146e-07, No Iterations 2
DILUPBiCG:  Solving for Uz, Initial residual = 0.013835, Final residual = 8.43312e-08, No Iterations 2
DICPCG:  Solving for p, Initial residual = 0.0205036, Final residual = 0.00101934, No Iterations 4
time step continuity errors : sum local = 1.218e-06, global = 1.49407e-10, cumulative = -1.05745e-06
DICPCG:  Solving for p, Initial residual = 0.00245256, Final residual = 7.65172e-07, No Iterations 59
time step continuity errors : sum local = 9.10554e-10, global = 2.74116e-11, cumulative = -1.05742e-06
ExecutionTime = 2.016 s  ClockTime = 2 s

Courant Number mean: 0.0376001 max: 0.478066
Time = 8e-05

DICPCG:  Solving for cellMotionUx, Initial residual = 6.09166e-06, Final residual = 7.25439e-09, No Iterations 18
DICPCG:  Solving for pcorr, Initial residual = 1, Final residual = 0.00823587, No Iterations 12
time step continuity errors : sum local = 7.4992e-12, global = 5.27326e-13, cumulative = -1.05742e-06
DILUPBiCG:  Solving for Ux, Initial residual = 0.00470218, Final residual = 3.2932e-06, No Iterations 2
DILUPBiCG:  Solving for Uy, Initial residual = 0.00433423, Final residual = 1.76359e-07, No Iterations 2
DILUPBiCG:  Solving for Uz, Initial residual = 0.0135457, Final residual = 6.82537e-08, No Iterations 2
DICPCG:  Solving for p, Initial residual = 0.019305, Final residual = 0.00080144, No Iterations 5
time step continuity errors : sum local = 9.42419e-07, global = 1.10668e-09, cumulative = -1.05631e-06
DICPCG:  Solving for p, Initial residual = 0.00228112, Final residual = 8.73918e-07, No Iterations 58
time step continuity errors : sum local = 1.02451e-09, global = 3.14988e-11, cumulative = -1.05628e-06
ExecutionTime = 2.11 s  ClockTime = 2 s

Courant Number mean: 0.0376296 max: 0.479633
Time = 8.5e-05

DICPCG:  Solving for cellMotionUx, Initial residual = 6.02551e-06, Final residual = 6.77631e-09, No Iterations 18
DICPCG:  Solving for pcorr, Initial residual = 1, Final residual = 0.00972676, No Iterations 12
time step continuity errors : sum local = 9.96513e-12, global = -4.61219e-13, cumulative = -1.05628e-06
DILUPBiCG:  Solving for Ux, Initial residual = 0.00461214, Final residual = 2.56635e-07, No Iterations 2
DILUPBiCG:  Solving for Uy, Initial residual = 0.00434905, Final residual = 1.65725e-07, No Iterations 2
DILUPBiCG:  Solving for Uz, Initial residual = 0.0133594, Final residual = 9.64617e-08, No Iterations 2
DICPCG:  Solving for p, Initial residual = 0.0180535, Final residual = 0.000819655, No Iterations 5
time step continuity errors : sum local = 9.50783e-07, global = 1.10518e-09, cumulative = -1.05518e-06
DICPCG:  Solving for p, Initial residual = 0.00226737, Final residual = 8.82878e-07, No Iterations 58
time step continuity errors : sum local = 1.02241e-09, global = 3.04723e-11, cumulative = -1.05515e-06
ExecutionTime = 2.219 s  ClockTime = 2 s

Courant Number mean: 0.0376626 max: 0.48038
Time = 9e-05

DICPCG:  Solving for cellMotionUx, Initial residual = 5.95972e-06, Final residual = 7.22827e-09, No Iterations 18
DICPCG:  Solving for pcorr, Initial residual = 1, Final residual = 0.00863043, No Iterations 12
time step continuity errors : sum local = 8.82385e-12, global = -2.81772e-13, cumulative = -1.05515e-06
DILUPBiCG:  Solving for Ux, Initial residual = 0.00454391, Final residual = 9.22402e-08, No Iterations 2
DILUPBiCG:  Solving for Uy, Initial residual = 0.00435315, Final residual = 1.53236e-07, No Iterations 2
DILUPBiCG:  Solving for Uz, Initial residual = 0.0130702, Final residual = 1.11574e-07, No Iterations 2
DICPCG:  Solving for p, Initial residual = 0.0168739, Final residual = 0.000810186, No Iterations 5
time step continuity errors : sum local = 9.28976e-07, global = 1.15487e-09, cumulative = -1.05399e-06
DICPCG:  Solving for p, Initial residual = 0.0022252, Final residual = 8.62511e-07, No Iterations 58
time step continuity errors : sum local = 9.87641e-10, global = 2.53435e-11, cumulative = -1.05397e-06
ExecutionTime = 2.313 s  ClockTime = 2 s

Courant Number mean: 0.037699 max: 0.480451
Time = 9.5e-05

DICPCG:  Solving for cellMotionUx, Initial residual = 5.8948e-06, Final residual = 6.94194e-09, No Iterations 18
DICPCG:  Solving for pcorr, Initial residual = 1, Final residual = 0.0083882, No Iterations 12
time step continuity errors : sum local = 8.28453e-12, global = 1.59452e-13, cumulative = -1.05397e-06
DILUPBiCG:  Solving for Ux, Initial residual = 0.00448502, Final residual = 1.33585e-07, No Iterations 2
DILUPBiCG:  Solving for Uy, Initial residual = 0.00434645, Final residual = 1.40337e-07, No Iterations 2
DILUPBiCG:  Solving for Uz, Initial residual = 0.0123786, Final residual = 1.32309e-07, No Iterations 2
DICPCG:  Solving for p, Initial residual = 0.0158989, Final residual = 0.000696465, No Iterations 6
time step continuity errors : sum local = 7.90223e-07, global = 1.23046e-09, cumulative = -1.05274e-06
DICPCG:  Solving for p, Initial residual = 0.00212059, Final residual = 8.82132e-07, No Iterations 58
time step continuity errors : sum local = 9.99509e-10, global = 2.61363e-11, cumulative = -1.05271e-06
ExecutionTime = 2.422 s  ClockTime = 2 s

Courant Number mean: 0.0377385 max: 0.480457
Time = 0.0001

DICPCG:  Solving for cellMotionUx, Initial residual = 5.83024e-06, Final residual = 6.99719e-09, No Iterations 18
DICPCG:  Solving for pcorr, Initial residual = 1, Final residual = 0.0082991, No Iterations 12
time step continuity errors : sum local = 8.29502e-12, global = 2.38821e-13, cumulative = -1.05271e-06
DILUPBiCG:  Solving for Ux, Initial residual = 0.00443103, Final residual = 1.59513e-07, No Iterations 2
DILUPBiCG:  Solving for Uy, Initial residual = 0.00433889, Final residual = 1.46307e-07, No Iterations 2
DILUPBiCG:  Solving for Uz, Initial residual = 0.0122934, Final residual = 1.71676e-07, No Iterations 2
DICPCG:  Solving for p, Initial residual = 0.0151451, Final residual = 0.000704164, No Iterations 6
time step continuity errors : sum local = 7.91268e-07, global = 1.17821e-09, cumulative = -1.05153e-06
DICPCG:  Solving for p, Initial residual = 0.00206257, Final residual = 9.15654e-07, No Iterations 58
time step continuity errors : sum local = 1.02784e-09, global = 2.92909e-11, cumulative = -1.0515e-06
ExecutionTime = 2.516 s  ClockTime = 3 s

Courant Number mean: 0.0377814 max: 0.481421
Time = 0.000105

DICPCG:  Solving for cellMotionUx, Initial residual = 5.76629e-06, Final residual = 6.87779e-09, No Iterations 18
DICPCG:  Solving for pcorr, Initial residual = 1, Final residual = 0.00831738, No Iterations 12
time step continuity errors : sum local = 8.54892e-12, global = 2.36997e-13, cumulative = -1.0515e-06
DILUPBiCG:  Solving for Ux, Initial residual = 0.00437326, Final residual = 1.69668e-07, No Iterations 2
DILUPBiCG:  Solving for Uy, Initial residual = 0.00432344, Final residual = 1.90888e-07, No Iterations 2
DILUPBiCG:  Solving for Uz, Initial residual = 0.0123279, Final residual = 1.69126e-07, No Iterations 2
DICPCG:  Solving for p, Initial residual = 0.014368, Final residual = 0.000692628, No Iterations 6
time step continuity errors : sum local = 7.7151e-07, global = 1.21361e-09, cumulative = -1.05029e-06
DICPCG:  Solving for p, Initial residual = 0.00198491, Final residual = 8.91667e-07, No Iterations 58
time step continuity errors : sum local = 9.92662e-10, global = 3.02717e-11, cumulative = -1.05026e-06
ExecutionTime = 2.61 s  ClockTime = 3 s

Courant Number mean: 0.0378471 max: 0.481751
Time = 0.00011

DICPCG:  Solving for cellMotionUx, Initial residual = 5.70271e-06, Final residual = 6.9093e-09, No Iterations 18
DICPCG:  Solving for pcorr, Initial residual = 1, Final residual = 0.00872589, No Iterations 12
time step continuity errors : sum local = 8.66186e-12, global = 2.38375e-13, cumulative = -1.05026e-06
DILUPBiCG:  Solving for Ux, Initial residual = 0.00431405, Final residual = 1.66022e-07, No Iterations 2
DILUPBiCG:  Solving for Uy, Initial residual = 0.00430508, Final residual = 2.80625e-07, No Iterations 2
DILUPBiCG:  Solving for Uz, Initial residual = 0.012057, Final residual = 1.87606e-07, No Iterations 2
DICPCG:  Solving for p, Initial residual = 0.0135346, Final residual = 0.000590639, No Iterations 7
time step continuity errors : sum local = 6.52892e-07, global = 1.31878e-09, cumulative = -1.04894e-06
DICPCG:  Solving for p, Initial residual = 0.00185903, Final residual = 7.86338e-07, No Iterations 57
time step continuity errors : sum local = 8.69237e-10, global = 7.86006e-12, cumulative = -1.04893e-06
ExecutionTime = 2.719 s  ClockTime = 3 s

Courant Number mean: 0.0379193 max: 0.481586
Time = 0.000115

DICPCG:  Solving for cellMotionUx, Initial residual = 5.63968e-06, Final residual = 6.90041e-09, No Iterations 18
DICPCG:  Solving for pcorr, Initial residual = 1, Final residual = 0.00733132, No Iterations 12
time step continuity errors : sum local = 6.37265e-12, global = -2.25846e-14, cumulative = -1.04893e-06
DILUPBiCG:  Solving for Ux, Initial residual = 0.00426193, Final residual = 1.39846e-07, No Iterations 2
DILUPBiCG:  Solving for Uy, Initial residual = 0.00428347, Final residual = 4.81436e-07, No Iterations 2
DILUPBiCG:  Solving for Uz, Initial residual = 0.0119976, Final residual = 1.59984e-07, No Iterations 2
DICPCG:  Solving for p, Initial residual = 0.0127885, Final residual = 0.000595631, No Iterations 7
time step continuity errors : sum local = 6.54016e-07, global = 1.21453e-09, cumulative = -1.04772e-06
DICPCG:  Solving for p, Initial residual = 0.00180912, Final residual = 9.43373e-07, No Iterations 57
time step continuity errors : sum local = 1.03648e-09, global = 2.20664e-12, cumulative = -1.04771e-06
ExecutionTime = 2.828 s  ClockTime = 3 s

Courant Number mean: 0.0379956 max: 0.481047
Time = 0.00012

DICPCG:  Solving for cellMotionUx, Initial residual = 5.57709e-06, Final residual = 6.90187e-09, No Iterations 18
DICPCG:  Solving for pcorr, Initial residual = 1, Final residual = 0.00898901, No Iterations 12
time step continuity errors : sum local = 9.31691e-12, global = 6.75321e-14, cumulative = -1.04771e-06
DILUPBiCG:  Solving for Ux, Initial residual = 0.00421275, Final residual = 1.68029e-07, No Iterations 2
DILUPBiCG:  Solving for Uy, Initial residual = 0.00424736, Final residual = 1.26647e-06, No Iterations 2
DILUPBiCG:  Solving for Uz, Initial residual = 0.0115607, Final residual = 2.00601e-07, No Iterations 2
DICPCG:  Solving for p, Initial residual = 0.0121168, Final residual = 0.000589671, No Iterations 7
time step continuity errors : sum local = 6.43693e-07, global = 1.23766e-09, cumulative = -1.04648e-06
DICPCG:  Solving for p, Initial residual = 0.00174871, Final residual = 9.52129e-07, No Iterations 57
time step continuity errors : sum local = 1.04008e-09, global = 3.50442e-12, cumulative = -1.04647e-06
ExecutionTime = 2.922 s  ClockTime = 3 s

Courant Number mean: 0.0380703 max: 0.480234
Time = 0.000125

DICPCG:  Solving for cellMotionUx, Initial residual = 5.51494e-06, Final residual = 6.90447e-09, No Iterations 18
DICPCG:  Solving for pcorr, Initial residual = 1, Final residual = 0.00955908, No Iterations 12
time step continuity errors : sum local = 9.94219e-12, global = -4.52377e-14, cumulative = -1.04647e-06
DILUPBiCG:  Solving for Ux, Initial residual = 0.00416751, Final residual = 3.70755e-07, No Iterations 2
DILUPBiCG:  Solving for Uy, Initial residual = 0.00419567, Final residual = 1.92075e-06, No Iterations 2
DILUPBiCG:  Solving for Uz, Initial residual = 0.0118616, Final residual = 1.60372e-07, No Iterations 2
DICPCG:  Solving for p, Initial residual = 0.0115002, Final residual = 0.000504604, No Iterations 8
time step continuity errors : sum local = 5.47648e-07, global = 2.18189e-09, cumulative = -1.04429e-06
DICPCG:  Solving for p, Initial residual = 0.00162475, Final residual = 9.32429e-07, No Iterations 58
time step continuity errors : sum local = 1.01268e-09, global = 3.64843e-11, cumulative = -1.04425e-06
ExecutionTime = 3.032 s  ClockTime = 3 s

Courant Number mean: 0.0381482 max: 0.479226
Time = 0.00013

DICPCG:  Solving for cellMotionUx, Initial residual = 5.45324e-06, Final residual = 6.90431e-09, No Iterations 18
DICPCG:  Solving for pcorr, Initial residual = 1, Final residual = 0.00741474, No Iterations 25
time step continuity errors : sum local = 7.5088e-12, global = 3.97641e-14, cumulative = -1.04425e-06
DILUPBiCG:  Solving for Ux, Initial residual = 0.00413281, Final residual = 8.47956e-07, No Iterations 2
DILUPBiCG:  Solving for Uy, Initial residual = 0.00414884, Final residual = 4.24747e-07, No Iterations 2
DILUPBiCG:  Solving for Uz, Initial residual = 0.0112879, Final residual = 1.41322e-07, No Iterations 2
DICPCG:  Solving for p, Initial residual = 0.0108971, Final residual = 0.000512654, No Iterations 8
time step continuity errors : sum local = 5.53116e-07, global = 2.12507e-09, cumulative = -1.04213e-06
DICPCG:  Solving for p, Initial residual = 0.00158409, Final residual = 9.26163e-07, No Iterations 58
time step continuity errors : sum local = 9.99902e-10, global = 3.85918e-11, cumulative = -1.04209e-06
ExecutionTime = 3.141 s  ClockTime = 3 s

Courant Number mean: 0.0382265 max: 0.478082
Time = 0.000135

DICPCG:  Solving for cellMotionUx, Initial residual = 5.39197e-06, Final residual = 6.91234e-09, No Iterations 18
DICPCG:  Solving for pcorr, Initial residual = 1, Final residual = 0.00761317, No Iterations 25
time step continuity errors : sum local = 7.61243e-12, global = 4.23807e-14, cumulative = -1.04209e-06
DILUPBiCG:  Solving for Ux, Initial residual = 0.00410199, Final residual = 2.30334e-06, No Iterations 2
DILUPBiCG:  Solving for Uy, Initial residual = 0.00417315, Final residual = 1.49625e-07, No Iterations 2
DILUPBiCG:  Solving for Uz, Initial residual = 0.0118822, Final residual = 1.44113e-07, No Iterations 2
DICPCG:  Solving for p, Initial residual = 0.0104351, Final residual = 0.000513595, No Iterations 8
time step continuity errors : sum local = 5.50881e-07, global = 2.15257e-09, cumulative = -1.03994e-06
DICPCG:  Solving for p, Initial residual = 0.00154962, Final residual = 9.13026e-07, No Iterations 58
time step continuity errors : sum local = 9.79915e-10, global = 4.32551e-11, cumulative = -1.03989e-06
ExecutionTime = 3.25 s  ClockTime = 3 s

Courant Number mean: 0.0383014 max: 0.476843
Time = 0.00014

DICPCG:  Solving for cellMotionUx, Initial residual = 5.33116e-06, Final residual = 6.92374e-09, No Iterations 18
DICPCG:  Solving for pcorr, Initial residual = 1, Final residual = 0.00942408, No Iterations 16
time step continuity errors : sum local = 9.2348e-12, global = 1.07591e-12, cumulative = -1.03989e-06
DILUPBiCG:  Solving for Ux, Initial residual = 0.00407383, Final residual = 1.92121e-09, No Iterations 3
DILUPBiCG:  Solving for Uy, Initial residual = 0.004203, Final residual = 6.86657e-08, No Iterations 2
DILUPBiCG:  Solving for Uz, Initial residual = 0.0115287, Final residual = 1.55901e-07, No Iterations 2
DICPCG:  Solving for p, Initial residual = 0.0100688, Final residual = 0.000420813, No Iterations 9
time step continuity errors : sum local = 4.48729e-07, global = 2.38328e-09, cumulative = -1.03751e-06
DICPCG:  Solving for p, Initial residual = 0.00143311, Final residual = 7.22127e-07, No Iterations 56
time step continuity errors : sum local = 7.70643e-10, global = -1.2615e-11, cumulative = -1.03752e-06
ExecutionTime = 3.36 s  ClockTime = 3 s

Courant Number mean: 0.0383725 max: 0.475535
Time = 0.000145

DICPCG:  Solving for cellMotionUx, Initial residual = 5.27081e-06, Final residual = 6.94623e-09, No Iterations 18
DICPCG:  Solving for pcorr, Initial residual = 1, Final residual = 0.0072238, No Iterations 15
time step continuity errors : sum local = 5.56697e-12, global = 2.49938e-13, cumulative = -1.03752e-06
DILUPBiCG:  Solving for Ux, Initial residual = 0.00404831, Final residual = 4.19944e-06, No Iterations 2
DILUPBiCG:  Solving for Uy, Initial residual = 0.00421996, Final residual = 1.33423e-07, No Iterations 2
DILUPBiCG:  Solving for Uz, Initial residual = 0.0118308, Final residual = 1.66793e-07, No Iterations 2
DICPCG:  Solving for p, Initial residual = 0.00992354, Final residual = 0.000426232, No Iterations 9
time step continuity errors : sum local = 4.51893e-07, global = 2.23165e-09, cumulative = -1.03529e-06
DICPCG:  Solving for p, Initial residual = 0.0014324, Final residual = 9.22444e-07, No Iterations 56
time step continuity errors : sum local = 9.78728e-10, global = -2.63924e-11, cumulative = -1.03532e-06
ExecutionTime = 3.453 s  ClockTime = 3 s

Courant Number mean: 0.038439 max: 0.474174
Time = 0.00015

DICPCG:  Solving for cellMotionUx, Initial residual = 5.21091e-06, Final residual = 6.97092e-09, No Iterations 18
DICPCG:  Solving for pcorr, Initial residual = 1, Final residual = 0.00966717, No Iterations 16
time step continuity errors : sum local = 9.46153e-12, global = 9.954e-13, cumulative = -1.03532e-06
DILUPBiCG:  Solving for Ux, Initial residual = 0.00401901, Final residual = 2.36634e-06, No Iterations 2
DILUPBiCG:  Solving for Uy, Initial residual = 0.00423006, Final residual = 1.93586e-07, No Iterations 2
DILUPBiCG:  Solving for Uz, Initial residual = 0.0113186, Final residual = 1.3432e-07, No Iterations 2
DICPCG:  Solving for p, Initial residual = 0.00978256, Final residual = 0.000428388, No Iterations 9
time step continuity errors : sum local = 4.51589e-07, global = 2.26366e-09, cumulative = -1.03305e-06
DICPCG:  Solving for p, Initial residual = 0.00144542, Final residual = 9.40421e-07, No Iterations 56
time step continuity errors : sum local = 9.92027e-10, global = -2.62658e-11, cumulative = -1.03308e-06
ExecutionTime = 3.563 s  ClockTime = 4 s

Courant Number mean: 0.0385033 max: 0.472765
Time = 0.000155

DICPCG:  Solving for cellMotionUx, Initial residual = 5.15148e-06, Final residual = 6.99129e-09, No Iterations 18
DICPCG:  Solving for pcorr, Initial residual = 1, Final residual = 0.00956279, No Iterations 16
time step continuity errors : sum local = 9.48654e-12, global = 9.73092e-13, cumulative = -1.03308e-06
DILUPBiCG:  Solving for Ux, Initial residual = 0.00398942, Final residual = 1.63803e-06, No Iterations 2
DILUPBiCG:  Solving for Uy, Initial residual = 0.00421934, Final residual = 2.38452e-07, No Iterations 2
DILUPBiCG:  Solving for Uz, Initial residual = 0.0111534, Final residual = 1.48845e-07, No Iterations 2
DICPCG:  Solving for p, Initial residual = 0.0096397, Final residual = 0.000429813, No Iterations 9
time step continuity errors : sum local = 4.50506e-07, global = 2.25754e-09, cumulative = -1.03082e-06
DICPCG:  Solving for p, Initial residual = 0.00147177, Final residual = 9.57669e-07, No Iterations 56
time step continuity errors : sum local = 1.00447e-09, global = -2.46499e-11, cumulative = -1.03084e-06
ExecutionTime = 3.672 s  ClockTime = 4 s

Courant Number mean: 0.0385626 max: 0.471309
Time = 0.00016

DICPCG:  Solving for cellMotionUx, Initial residual = 5.09254e-06, Final residual = 7.00635e-09, No Iterations 18
DICPCG:  Solving for pcorr, Initial residual = 1, Final residual = 0.00846458, No Iterations 26
time step continuity errors : sum local = 8.50245e-12, global = 3.07881e-13, cumulative = -1.03084e-06
DILUPBiCG:  Solving for Ux, Initial residual = 0.00395375, Final residual = 1.06917e-06, No Iterations 2
DILUPBiCG:  Solving for Uy, Initial residual = 0.00418773, Final residual = 2.68179e-07, No Iterations 2
DILUPBiCG:  Solving for Uz, Initial residual = 0.0113337, Final residual = 9.40089e-06, No Iterations 1
DICPCG:  Solving for p, Initial residual = 0.00950553, Final residual = 0.000430819, No Iterations 9
time step continuity errors : sum local = 4.49029e-07, global = 2.25521e-09, cumulative = -1.02859e-06
DICPCG:  Solving for p, Initial residual = 0.001495, Final residual = 8.45378e-07, No Iterations 47
time step continuity errors : sum local = 8.8168e-10, global = 2.84947e-11, cumulative = -1.02856e-06
ExecutionTime = 3.782 s  ClockTime = 4 s

Courant Number mean: 0.0386169 max: 0.469803
Time = 0.000165

DICPCG:  Solving for cellMotionUx, Initial residual = 5.03409e-06, Final residual = 7.01708e-09, No Iterations 18
DICPCG:  Solving for pcorr, Initial residual = 1, Final residual = 0.00880752, No Iterations 25
time step continuity errors : sum local = 7.76541e-12, global = -5.42975e-14, cumulative = -1.02856e-06
DILUPBiCG:  Solving for Ux, Initial residual = 0.00391593, Final residual = 4.50586e-07, No Iterations 2
DILUPBiCG:  Solving for Uy, Initial residual = 0.00414094, Final residual = 2.8242e-07, No Iterations 2
DILUPBiCG:  Solving for Uz, Initial residual = 0.0109151, Final residual = 9.14782e-06, No Iterations 1
DICPCG:  Solving for p, Initial residual = 0.00943757, Final residual = 0.000431116, No Iterations 9
time step continuity errors : sum local = 4.46856e-07, global = 2.21147e-09, cumulative = -1.02635e-06
DICPCG:  Solving for p, Initial residual = 0.00151793, Final residual = 7.47806e-07, No Iterations 57
time step continuity errors : sum local = 7.75579e-10, global = -1.73257e-11, cumulative = -1.02637e-06
ExecutionTime = 3.891 s  ClockTime = 4 s

Courant Number mean: 0.0386678 max: 0.468241
Time = 0.00017

DICPCG:  Solving for cellMotionUx, Initial residual = 4.97615e-06, Final residual = 7.02652e-09, No Iterations 18
DICPCG:  Solving for pcorr, Initial residual = 1, Final residual = 0.00825862, No Iterations 26
time step continuity errors : sum local = 6.40522e-12, global = 6.73654e-14, cumulative = -1.02637e-06
DILUPBiCG:  Solving for Ux, Initial residual = 0.00387736, Final residual = 7.74529e-06, No Iterations 1
DILUPBiCG:  Solving for Uy, Initial residual = 0.00408343, Final residual = 2.86384e-07, No Iterations 2
DILUPBiCG:  Solving for Uz, Initial residual = 0.0108881, Final residual = 9.14113e-06, No Iterations 1
DICPCG:  Solving for p, Initial residual = 0.00939788, Final residual = 0.000430044, No Iterations 9
time step continuity errors : sum local = 4.43346e-07, global = 2.26215e-09, cumulative = -1.0241e-06
DICPCG:  Solving for p, Initial residual = 0.00154573, Final residual = 7.50752e-07, No Iterations 57
time step continuity errors : sum local = 7.74448e-10, global = -1.35156e-11, cumulative = -1.02412e-06
ExecutionTime = 4 s  ClockTime = 4 s

Courant Number mean: 0.0387167 max: 0.466619
Time = 0.000175

DICPCG:  Solving for cellMotionUx, Initial residual = 4.91872e-06, Final residual = 7.04038e-09, No Iterations 18
DICPCG:  Solving for pcorr, Initial residual = 1, Final residual = 0.00712697, No Iterations 16
time step continuity errors : sum local = 5.51947e-12, global = -5.76953e-13, cumulative = -1.02412e-06
DILUPBiCG:  Solving for Ux, Initial residual = 0.00383908, Final residual = 1.27008e-07, No Iterations 2
DILUPBiCG:  Solving for Uy, Initial residual = 0.0040191, Final residual = 2.8565e-07, No Iterations 2
DILUPBiCG:  Solving for Uz, Initial residual = 0.0107889, Final residual = 9.17808e-06, No Iterations 1
DICPCG:  Solving for p, Initial residual = 0.00937617, Final residual = 0.000434327, No Iterations 9
time step continuity errors : sum local = 4.45517e-07, global = 2.24643e-09, cumulative = -1.02187e-06
DICPCG:  Solving for p, Initial residual = 0.0015762, Final residual = 9.79171e-07, No Iterations 56
time step continuity errors : sum local = 1.00515e-09, global = -2.55814e-11, cumulative = -1.0219e-06
ExecutionTime = 4.094 s  ClockTime = 4 s

Courant Number mean: 0.038761 max: 0.464933
Time = 0.00018

DICPCG:  Solving for cellMotionUx, Initial residual = 4.86183e-06, Final residual = 7.05105e-09, No Iterations 18
DICPCG:  Solving for pcorr, Initial residual = 1, Final residual = 0.00811105, No Iterations 15
time step continuity errors : sum local = 8.15285e-12, global = -6.41093e-13, cumulative = -1.0219e-06
DILUPBiCG:  Solving for Ux, Initial residual = 0.00380228, Final residual = 1.06277e-08, No Iterations 3
DILUPBiCG:  Solving for Uy, Initial residual = 0.00398927, Final residual = 2.86359e-07, No Iterations 2
DILUPBiCG:  Solving for Uz, Initial residual = 0.0109929, Final residual = 8.93425e-06, No Iterations 1
DICPCG:  Solving for p, Initial residual = 0.00934119, Final residual = 0.000437505, No Iterations 9
time step continuity errors : sum local = 4.467e-07, global = 2.23217e-09, cumulative = -1.01967e-06
DICPCG:  Solving for p, Initial residual = 0.00160424, Final residual = 8.69064e-07, No Iterations 56
time step continuity errors : sum local = 8.88192e-10, global = -2.75815e-11, cumulative = -1.01969e-06
ExecutionTime = 4.204 s  ClockTime = 4 s

Courant Number mean: 0.0387994 max: 0.463182
Time = 0.000185

DICPCG:  Solving for cellMotionUx, Initial residual = 4.80543e-06, Final residual = 7.06347e-09, No Iterations 18
DICPCG:  Solving for pcorr, Initial residual = 1, Final residual = 0.00715953, No Iterations 15
time step continuity errors : sum local = 6.35904e-12, global = -3.43115e-13, cumulative = -1.01969e-06
DILUPBiCG:  Solving for Ux, Initial residual = 0.00377256, Final residual = 2.04173e-06, No Iterations 2
DILUPBiCG:  Solving for Uy, Initial residual = 0.00395823, Final residual = 2.92322e-07, No Iterations 2
DILUPBiCG:  Solving for Uz, Initial residual = 0.0105986, Final residual = 9.41877e-06, No Iterations 1
DICPCG:  Solving for p, Initial residual = 0.00929516, Final residual = 0.000439272, No Iterations 9
time step continuity errors : sum local = 4.46682e-07, global = 2.21821e-09, cumulative = -1.01748e-06
DICPCG:  Solving for p, Initial residual = 0.00162095, Final residual = 7.79676e-07, No Iterations 55
time step continuity errors : sum local = 7.9364e-10, global = -5.47088e-11, cumulative = -1.01753e-06
ExecutionTime = 4.313 s  ClockTime = 4 s

Courant Number mean: 0.0388314 max: 0.461366
Time = 0.00019

DICPCG:  Solving for cellMotionUx, Initial residual = 4.74954e-06, Final residual = 7.07851e-09, No Iterations 18
DICPCG:  Solving for pcorr, Initial residual = 1, Final residual = 0.00720435, No Iterations 15
time step continuity errors : sum local = 5.71767e-12, global = -2.77232e-13, cumulative = -1.01753e-06
DILUPBiCG:  Solving for Ux, Initial residual = 0.00375323, Final residual = 1.18578e-06, No Iterations 2
DILUPBiCG:  Solving for Uy, Initial residual = 0.00391663, Final residual = 3.05323e-07, No Iterations 2
DILUPBiCG:  Solving for Uz, Initial residual = 0.0108819, Final residual = 9.48437e-06, No Iterations 1
DICPCG:  Solving for p, Initial residual = 0.00924853, Final residual = 0.000438868, No Iterations 9
time step continuity errors : sum local = 4.44589e-07, global = 2.19635e-09, cumulative = -1.01533e-06
DICPCG:  Solving for p, Initial residual = 0.00162772, Final residual = 9.34835e-07, No Iterations 54
time step continuity errors : sum local = 9.48071e-10, global = -1.6272e-11, cumulative = -1.01535e-06
ExecutionTime = 4.422 s  ClockTime = 4 s

Courant Number mean: 0.0388599 max: 0.459489
Time = 0.000195

DICPCG:  Solving for cellMotionUx, Initial residual = 4.6942e-06, Final residual = 7.09088e-09, No Iterations 18
DICPCG:  Solving for pcorr, Initial residual = 1, Final residual = 0.00985223, No Iterations 15
time step continuity errors : sum local = 9.34062e-12, global = -5.99557e-13, cumulative = -1.01535e-06
DILUPBiCG:  Solving for Ux, Initial residual = 0.00373288, Final residual = 8.06789e-07, No Iterations 2
DILUPBiCG:  Solving for Uy, Initial residual = 0.00386158, Final residual = 3.21572e-07, No Iterations 2
DILUPBiCG:  Solving for Uz, Initial residual = 0.0109179, Final residual = 9.31952e-06, No Iterations 1
DICPCG:  Solving for p, Initial residual = 0.00922713, Final residual = 0.000435997, No Iterations 9
time step continuity errors : sum local = 4.40345e-07, global = 2.18123e-09, cumulative = -1.01317e-06
DICPCG:  Solving for p, Initial residual = 0.00161739, Final residual = 7.26738e-07, No Iterations 56
time step continuity errors : sum local = 7.35172e-10, global = 2.99548e-11, cumulative = -1.01314e-06
ExecutionTime = 4.532 s  ClockTime = 5 s

Courant Number mean: 0.0388847 max: 0.457554
Time = 0.0002

DICPCG:  Solving for cellMotionUx, Initial residual = 4.6395e-06, Final residual = 7.10104e-09, No Iterations 18
DICPCG:  Solving for pcorr, Initial residual = 1, Final residual = 0.00987745, No Iterations 15
time step continuity errors : sum local = 7.26163e-12, global = -1.29196e-13, cumulative = -1.01314e-06
DILUPBiCG:  Solving for Ux, Initial residual = 0.00371906, Final residual = 5.74785e-07, No Iterations 2
DILUPBiCG:  Solving for Uy, Initial residual = 0.00382396, Final residual = 3.396e-07, No Iterations 2
DILUPBiCG:  Solving for Uz, Initial residual = 0.0109749, Final residual = 9.68185e-06, No Iterations 1
DICPCG:  Solving for p, Initial residual = 0.00916691, Final residual = 0.000430581, No Iterations 9
time step continuity errors : sum local = 4.33955e-07, global = 2.14747e-09, cumulative = -1.01099e-06
DICPCG:  Solving for p, Initial residual = 0.00160331, Final residual = 9.47426e-07, No Iterations 56
time step continuity errors : sum local = 9.56662e-10, global = 2.32725e-11, cumulative = -1.01097e-06
ExecutionTime = 4.657 s  ClockTime = 5 s

Courant Number mean: 0.0389056 max: 0.455571
Time = 0.000205

DICPCG:  Solving for cellMotionUx, Initial residual = 4.58541e-06, Final residual = 7.11013e-09, No Iterations 18
DICPCG:  Solving for pcorr, Initial residual = 1, Final residual = 0.00778128, No Iterations 15
time step continuity errors : sum local = 7.44406e-12, global = 8.83756e-14, cumulative = -1.01097e-06
DILUPBiCG:  Solving for Ux, Initial residual = 0.0037014, Final residual = 4.19207e-07, No Iterations 2
DILUPBiCG:  Solving for Uy, Initial residual = 0.00380063, Final residual = 3.57094e-07, No Iterations 2
DILUPBiCG:  Solving for Uz, Initial residual = 0.010814, Final residual = 9.12852e-06, No Iterations 1
DICPCG:  Solving for p, Initial residual = 0.00908408, Final residual = 0.000423628, No Iterations 9
time step continuity errors : sum local = 4.26196e-07, global = 2.1067e-09, cumulative = -1.00886e-06
DICPCG:  Solving for p, Initial residual = 0.00159459, Final residual = 6.00358e-07, No Iterations 57
time step continuity errors : sum local = 6.05134e-10, global = 8.77118e-12, cumulative = -1.00885e-06
ExecutionTime = 4.75 s  ClockTime = 5 s

Courant Number mean: 0.0389206 max: 0.453549
Time = 0.00021

DICPCG:  Solving for cellMotionUx, Initial residual = 4.53188e-06, Final residual = 7.11639e-09, No Iterations 18
DICPCG:  Solving for pcorr, Initial residual = 1, Final residual = 0.00809286, No Iterations 14
time step continuity errors : sum local = 4.89727e-12, global = -3.32155e-15, cumulative = -1.00885e-06
DILUPBiCG:  Solving for Ux, Initial residual = 0.00367596, Final residual = 3.11194e-07, No Iterations 2
DILUPBiCG:  Solving for Uy, Initial residual = 0.00380406, Final residual = 3.73267e-07, No Iterations 2
DILUPBiCG:  Solving for Uz, Initial residual = 0.0103979, Final residual = 9.34492e-06, No Iterations 1
DICPCG:  Solving for p, Initial residual = 0.0089919, Final residual = 0.000416145, No Iterations 9
time step continuity errors : sum local = 4.17871e-07, global = 2.06187e-09, cumulative = -1.00679e-06
DICPCG:  Solving for p, Initial residual = 0.0015767, Final residual = 6.07841e-07, No Iterations 57
time step continuity errors : sum local = 6.11377e-10, global = 1.10753e-11, cumulative = -1.00678e-06
ExecutionTime = 4.86 s  ClockTime = 5 s

Courant Number mean: 0.0389323 max: 0.451499
Time = 0.000215

DICPCG:  Solving for cellMotionUx, Initial residual = 4.47891e-06, Final residual = 7.11933e-09, No Iterations 18
DICPCG:  Solving for pcorr, Initial residual = 1, Final residual = 0.00719704, No Iterations 14
time step continuity errors : sum local = 4.4001e-12, global = -4.70504e-14, cumulative = -1.00678e-06
DILUPBiCG:  Solving for Ux, Initial residual = 0.00364392, Final residual = 2.34977e-07, No Iterations 2
DILUPBiCG:  Solving for Uy, Initial residual = 0.00381878, Final residual = 3.88224e-07, No Iterations 2
DILUPBiCG:  Solving for Uz, Initial residual = 0.0103316, Final residual = 9.62335e-06, No Iterations 1
DICPCG:  Solving for p, Initial residual = 0.00894763, Final residual = 0.00040809, No Iterations 9
time step continuity errors : sum local = 4.08868e-07, global = 2.02451e-09, cumulative = -1.00476e-06
DICPCG:  Solving for p, Initial residual = 0.0015507, Final residual = 7.23135e-07, No Iterations 57
time step continuity errors : sum local = 7.25565e-10, global = 1.86608e-11, cumulative = -1.00474e-06
ExecutionTime = 4.969 s  ClockTime = 5 s

Courant Number mean: 0.0389389 max: 0.449434
Time = 0.00022

DICPCG:  Solving for cellMotionUx, Initial residual = 4.42649e-06, Final residual = 7.12034e-09, No Iterations 18
DICPCG:  Solving for pcorr, Initial residual = 1, Final residual = 0.00763404, No Iterations 14
time step continuity errors : sum local = 5.53899e-12, global = 8.49072e-14, cumulative = -1.00474e-06
DILUPBiCG:  Solving for Ux, Initial residual = 0.00361424, Final residual = 1.81297e-07, No Iterations 2
DILUPBiCG:  Solving for Uy, Initial residual = 0.00382371, Final residual = 4.01856e-07, No Iterations 2
DILUPBiCG:  Solving for Uz, Initial residual = 0.0107843, Final residual = 9.46211e-06, No Iterations 1
DICPCG:  Solving for p, Initial residual = 0.00891122, Final residual = 0.000400135, No Iterations 9
time step continuity errors : sum local = 3.99968e-07, global = 1.98291e-09, cumulative = -1.00276e-06
DICPCG:  Solving for p, Initial residual = 0.00152313, Final residual = 9.02936e-07, No Iterations 57
time step continuity errors : sum local = 9.0392e-10, global = 2.4424e-11, cumulative = -1.00273e-06
ExecutionTime = 5.094 s  ClockTime = 5 s

Courant Number mean: 0.0389407 max: 0.447367
Time = 0.000225

DICPCG:  Solving for cellMotionUx, Initial residual = 4.37467e-06, Final residual = 7.12371e-09, No Iterations 18
DICPCG:  Solving for pcorr, Initial residual = 1, Final residual = 0.00955157, No Iterations 15
time step continuity errors : sum local = 8.63385e-12, global = -7.6644e-14, cumulative = -1.00273e-06
DILUPBiCG:  Solving for Ux, Initial residual = 0.00359173, Final residual = 1.45198e-07, No Iterations 2
DILUPBiCG:  Solving for Uy, Initial residual = 0.00382109, Final residual = 4.12873e-07, No Iterations 2
DILUPBiCG:  Solving for Uz, Initial residual = 0.0103617, Final residual = 9.51762e-06, No Iterations 1
DICPCG:  Solving for p, Initial residual = 0.00883146, Final residual = 0.00039204, No Iterations 9
time step continuity errors : sum local = 3.90947e-07, global = 1.93859e-09, cumulative = -1.00079e-06
DICPCG:  Solving for p, Initial residual = 0.00149392, Final residual = 8.29904e-07, No Iterations 58
time step continuity errors : sum local = 8.28693e-10, global = 1.89533e-11, cumulative = -1.00077e-06
ExecutionTime = 5.204 s  ClockTime = 5 s

Courant Number mean: 0.0389382 max: 0.445312
Time = 0.00023

DICPCG:  Solving for cellMotionUx, Initial residual = 4.32343e-06, Final residual = 7.12685e-09, No Iterations 18
DICPCG:  Solving for pcorr, Initial residual = 1, Final residual = 0.00963655, No Iterations 15
time step continuity errors : sum local = 7.98574e-12, global = -1.11807e-13, cumulative = -1.00077e-06
DILUPBiCG:  Solving for Ux, Initial residual = 0.00357188, Final residual = 1.29248e-07, No Iterations 2
DILUPBiCG:  Solving for Uy, Initial residual = 0.00380899, Final residual = 4.21717e-07, No Iterations 2
DILUPBiCG:  Solving for Uz, Initial residual = 0.0104621, Final residual = 9.11587e-06, No Iterations 1
DICPCG:  Solving for p, Initial residual = 0.00871972, Final residual = 0.000383798, No Iterations 9
time step continuity errors : sum local = 3.81749e-07, global = 1.88829e-09, cumulative = -9.98885e-07
DICPCG:  Solving for p, Initial residual = 0.00146013, Final residual = 9.50056e-07, No Iterations 58
time step continuity errors : sum local = 9.46131e-10, global = 1.52518e-11, cumulative = -9.9887e-07
ExecutionTime = 5.313 s  ClockTime = 5 s

Courant Number mean: 0.0389331 max: 0.443282
Time = 0.000235

DICPCG:  Solving for cellMotionUx, Initial residual = 4.27275e-06, Final residual = 7.12889e-09, No Iterations 18
DICPCG:  Solving for pcorr, Initial residual = 1, Final residual = 0.0097575, No Iterations 15
time step continuity errors : sum local = 9.23188e-12, global = -1.77702e-13, cumulative = -9.9887e-07
DILUPBiCG:  Solving for Ux, Initial residual = 0.00355535, Final residual = 1.32977e-07, No Iterations 2
DILUPBiCG:  Solving for Uy, Initial residual = 0.00379177, Final residual = 4.2797e-07, No Iterations 2
DILUPBiCG:  Solving for Uz, Initial residual = 0.0101959, Final residual = 8.88723e-06, No Iterations 1
DICPCG:  Solving for p, Initial residual = 0.00855883, Final residual = 0.000376222, No Iterations 9
time step continuity errors : sum local = 3.73168e-07, global = 1.8423e-09, cumulative = -9.97028e-07
DICPCG:  Solving for p, Initial residual = 0.00142343, Final residual = 7.13799e-07, No Iterations 59
time step continuity errors : sum local = 7.08729e-10, global = 7.85268e-12, cumulative = -9.9702e-07
ExecutionTime = 5.422 s  ClockTime = 5 s

Courant Number mean: 0.0389252 max: 0.441291
Time = 0.00024

DICPCG:  Solving for cellMotionUx, Initial residual = 4.22267e-06, Final residual = 7.12898e-09, No Iterations 18
DICPCG:  Solving for pcorr, Initial residual = 1, Final residual = 0.00899516, No Iterations 15
time step continuity errors : sum local = 6.37513e-12, global = -4.12143e-14, cumulative = -9.9702e-07
DILUPBiCG:  Solving for Ux, Initial residual = 0.00353265, Final residual = 1.42592e-07, No Iterations 2
DILUPBiCG:  Solving for Uy, Initial residual = 0.00377716, Final residual = 4.32059e-07, No Iterations 2
DILUPBiCG:  Solving for Uz, Initial residual = 0.0102957, Final residual = 8.94114e-06, No Iterations 1
DICPCG:  Solving for p, Initial residual = 0.00840878, Final residual = 0.000369953, No Iterations 9
time step continuity errors : sum local = 3.65791e-07, global = 1.79275e-09, cumulative = -9.95227e-07
DICPCG:  Solving for p, Initial residual = 0.00138718, Final residual = 6.85328e-07, No Iterations 59
time step continuity errors : sum local = 6.7814e-10, global = 4.80434e-12, cumulative = -9.95222e-07
ExecutionTime = 5.532 s  ClockTime = 6 s

Courant Number mean: 0.038914 max: 0.439351
Time = 0.000245

DICPCG:  Solving for cellMotionUx, Initial residual = 4.17316e-06, Final residual = 7.1286e-09, No Iterations 18
DICPCG:  Solving for pcorr, Initial residual = 1, Final residual = 0.00866548, No Iterations 15
time step continuity errors : sum local = 5.87641e-12, global = -4.55791e-14, cumulative = -9.95222e-07
DILUPBiCG:  Solving for Ux, Initial residual = 0.00350815, Final residual = 1.53977e-07, No Iterations 2
DILUPBiCG:  Solving for Uy, Initial residual = 0.00375227, Final residual = 4.32847e-07, No Iterations 2
DILUPBiCG:  Solving for Uz, Initial residual = 0.0103601, Final residual = 8.78046e-06, No Iterations 1
DICPCG:  Solving for p, Initial residual = 0.00827985, Final residual = 0.000365077, No Iterations 9
time step continuity errors : sum local = 3.59698e-07, global = 1.74986e-09, cumulative = -9.93472e-07
DICPCG:  Solving for p, Initial residual = 0.00134796, Final residual = 9.8581e-07, No Iterations 58
time step continuity errors : sum local = 9.71823e-10, global = 3.10752e-12, cumulative = -9.93469e-07
ExecutionTime = 5.641 s  ClockTime = 6 s

Courant Number mean: 0.0389053 max: 0.437474
Time = 0.00025

DICPCG:  Solving for cellMotionUx, Initial residual = 4.12425e-06, Final residual = 7.12926e-09, No Iterations 18
DICPCG:  Solving for pcorr, Initial residual = 1, Final residual = 0.00866139, No Iterations 15
time step continuity errors : sum local = 8.41734e-12, global = -1.49988e-13, cumulative = -9.9347e-07
DILUPBiCG:  Solving for Ux, Initial residual = 0.00348536, Final residual = 1.64847e-07, No Iterations 2
DILUPBiCG:  Solving for Uy, Initial residual = 0.00371631, Final residual = 4.30413e-07, No Iterations 2
DILUPBiCG:  Solving for Uz, Initial residual = 0.0101431, Final residual = 8.77559e-06, No Iterations 1
DICPCG:  Solving for p, Initial residual = 0.00813029, Final residual = 0.000360583, No Iterations 9
time step continuity errors : sum local = 3.53871e-07, global = 1.71094e-09, cumulative = -9.91759e-07
DICPCG:  Solving for p, Initial residual = 0.00131098, Final residual = 9.71381e-07, No Iterations 58
time step continuity errors : sum local = 9.53526e-10, global = 5.30524e-12, cumulative = -9.91753e-07
ExecutionTime = 5.766 s  ClockTime = 6 s

Courant Number mean: 0.038895 max: 0.435671
Time = 0.000255

DICPCG:  Solving for cellMotionUx, Initial residual = 4.0759e-06, Final residual = 7.13032e-09, No Iterations 18
DICPCG:  Solving for pcorr, Initial residual = 1, Final residual = 0.00801847, No Iterations 15
time step continuity errors : sum local = 7.64582e-12, global = -1.31277e-13, cumulative = -9.91753e-07
DILUPBiCG:  Solving for Ux, Initial residual = 0.00346012, Final residual = 1.74992e-07, No Iterations 2
DILUPBiCG:  Solving for Uy, Initial residual = 0.0036752, Final residual = 4.25996e-07, No Iterations 2
DILUPBiCG:  Solving for Uz, Initial residual = 0.0102716, Final residual = 8.31302e-06, No Iterations 1
DICPCG:  Solving for p, Initial residual = 0.00802526, Final residual = 0.000356147, No Iterations 9
time step continuity errors : sum local = 3.47998e-07, global = 1.67403e-09, cumulative = -9.90079e-07
DICPCG:  Solving for p, Initial residual = 0.00128109, Final residual = 9.74229e-07, No Iterations 58
time step continuity errors : sum local = 9.51945e-10, global = 9.50404e-12, cumulative = -9.9007e-07
ExecutionTime = 5.876 s  ClockTime = 6 s

Courant Number mean: 0.0388816 max: 0.43395
Time = 0.00026

DICPCG:  Solving for cellMotionUx, Initial residual = 4.02818e-06, Final residual = 7.13217e-09, No Iterations 18
DICPCG:  Solving for pcorr, Initial residual = 1, Final residual = 0.00788315, No Iterations 15
time step continuity errors : sum local = 7.50432e-12, global = -1.5887e-13, cumulative = -9.9007e-07
DILUPBiCG:  Solving for Ux, Initial residual = 0.00343611, Final residual = 1.84643e-07, No Iterations 2
DILUPBiCG:  Solving for Uy, Initial residual = 0.00363722, Final residual = 4.19592e-07, No Iterations 2
DILUPBiCG:  Solving for Uz, Initial residual = 0.0103293, Final residual = 8.39631e-06, No Iterations 1
DICPCG:  Solving for p, Initial residual = 0.00796726, Final residual = 0.000352224, No Iterations 9
time step continuity errors : sum local = 3.42556e-07, global = 1.64388e-09, cumulative = -9.88426e-07
DICPCG:  Solving for p, Initial residual = 0.00125069, Final residual = 6.22824e-07, No Iterations 59
time step continuity errors : sum local = 6.05605e-10, global = 1.21656e-11, cumulative = -9.88414e-07
ExecutionTime = 5.985 s  ClockTime = 6 s

Courant Number mean: 0.0388647 max: 0.432321
Time = 0.000265

DICPCG:  Solving for cellMotionUx, Initial residual = 3.98107e-06, Final residual = 7.13372e-09, No Iterations 18
DICPCG:  Solving for pcorr, Initial residual = 1, Final residual = 0.00769068, No Iterations 15
time step continuity errors : sum local = 4.65752e-12, global = -8.76386e-14, cumulative = -9.88414e-07
DILUPBiCG:  Solving for Ux, Initial residual = 0.00340704, Final residual = 1.93107e-07, No Iterations 2
DILUPBiCG:  Solving for Uy, Initial residual = 0.00360891, Final residual = 4.12888e-07, No Iterations 2
DILUPBiCG:  Solving for Uz, Initial residual = 0.0101481, Final residual = 8.54705e-06, No Iterations 1
DICPCG:  Solving for p, Initial residual = 0.00789472, Final residual = 0.000348263, No Iterations 9
time step continuity errors : sum local = 3.37014e-07, global = 1.61942e-09, cumulative = -9.86795e-07
DICPCG:  Solving for p, Initial residual = 0.00122784, Final residual = 6.57438e-07, No Iterations 59
time step continuity errors : sum local = 6.35919e-10, global = 1.39967e-11, cumulative = -9.86781e-07
ExecutionTime = 6.11 s  ClockTime = 6 s

Courant Number mean: 0.0388459 max: 0.430789
Time = 0.00027

DICPCG:  Solving for cellMotionUx, Initial residual = 3.93454e-06, Final residual = 7.13534e-09, No Iterations 18
DICPCG:  Solving for pcorr, Initial residual = 1, Final residual = 0.00856951, No Iterations 15
time step continuity errors : sum local = 5.44952e-12, global = -1.31421e-13, cumulative = -9.86781e-07
DILUPBiCG:  Solving for Ux, Initial residual = 0.00337553, Final residual = 2.00475e-07, No Iterations 2
DILUPBiCG:  Solving for Uy, Initial residual = 0.00357645, Final residual = 4.06603e-07, No Iterations 2
DILUPBiCG:  Solving for Uz, Initial residual = 0.00988996, Final residual = 8.56782e-06, No Iterations 1
DICPCG:  Solving for p, Initial residual = 0.00779822, Final residual = 0.000344618, No Iterations 9
time step continuity errors : sum local = 3.31709e-07, global = 1.60181e-09, cumulative = -9.85179e-07
DICPCG:  Solving for p, Initial residual = 0.00120156, Final residual = 6.93708e-07, No Iterations 59
time step continuity errors : sum local = 6.6725e-10, global = 1.43282e-11, cumulative = -9.85165e-07
ExecutionTime = 6.219 s  ClockTime = 6 s

Courant Number mean: 0.0388281 max: 0.429362
Time = 0.000275

DICPCG:  Solving for cellMotionUx, Initial residual = 3.88859e-06, Final residual = 7.13808e-09, No Iterations 18
DICPCG:  Solving for pcorr, Initial residual = 1, Final residual = 0.00787764, No Iterations 16
time step continuity errors : sum local = 5.25635e-12, global = -2.24071e-13, cumulative = -9.85165e-07
DILUPBiCG:  Solving for Ux, Initial residual = 0.00334823, Final residual = 2.06515e-07, No Iterations 2
DILUPBiCG:  Solving for Uy, Initial residual = 0.00353821, Final residual = 4.01617e-07, No Iterations 2
DILUPBiCG:  Solving for Uz, Initial residual = 0.0103182, Final residual = 8.30959e-06, No Iterations 1
DICPCG:  Solving for p, Initial residual = 0.00770046, Final residual = 0.000341203, No Iterations 9
time step continuity errors : sum local = 3.26547e-07, global = 1.5876e-09, cumulative = -9.83577e-07
DICPCG:  Solving for p, Initial residual = 0.00117793, Final residual = 7.26845e-07, No Iterations 59
time step continuity errors : sum local = 6.94954e-10, global = 1.28229e-11, cumulative = -9.83564e-07
ExecutionTime = 6.329 s  ClockTime = 6 s

Courant Number mean: 0.0388085 max: 0.428041
Time = 0.00028

DICPCG:  Solving for cellMotionUx, Initial residual = 3.84321e-06, Final residual = 7.13988e-09, No Iterations 18
DICPCG:  Solving for pcorr, Initial residual = 1, Final residual = 0.00798751, No Iterations 17
time step continuity errors : sum local = 5.55096e-12, global = -2.46623e-13, cumulative = -9.83565e-07
DILUPBiCG:  Solving for Ux, Initial residual = 0.00331952, Final residual = 2.11353e-07, No Iterations 2
DILUPBiCG:  Solving for Uy, Initial residual = 0.0034978, Final residual = 3.98976e-07, No Iterations 2
DILUPBiCG:  Solving for Uz, Initial residual = 0.0100582, Final residual = 8.3278e-06, No Iterations 1
DICPCG:  Solving for p, Initial residual = 0.00769235, Final residual = 0.000338846, No Iterations 9
time step continuity errors : sum local = 3.22335e-07, global = 1.57497e-09, cumulative = -9.8199e-07
DICPCG:  Solving for p, Initial residual = 0.00115682, Final residual = 9.25997e-07, No Iterations 58
time step continuity errors : sum local = 8.7983e-10, global = -3.04911e-12, cumulative = -9.81993e-07
ExecutionTime = 6.438 s  ClockTime = 6 s

Courant Number mean: 0.0387866 max: 0.426832
Time = 0.000285

DICPCG:  Solving for cellMotionUx, Initial residual = 3.79842e-06, Final residual = 7.14054e-09, No Iterations 18
DICPCG:  Solving for pcorr, Initial residual = 1, Final residual = 0.00990947, No Iterations 17
time step continuity errors : sum local = 8.71864e-12, global = -1.9253e-13, cumulative = -9.81993e-07
DILUPBiCG:  Solving for Ux, Initial residual = 0.00329238, Final residual = 2.15122e-07, No Iterations 2
DILUPBiCG:  Solving for Uy, Initial residual = 0.00345407, Final residual = 4.00558e-07, No Iterations 2
DILUPBiCG:  Solving for Uz, Initial residual = 0.0100318, Final residual = 8.26731e-06, No Iterations 1
DICPCG:  Solving for p, Initial residual = 0.00767802, Final residual = 0.000337626, No Iterations 9
time step continuity errors : sum local = 3.19129e-07, global = 1.55489e-09, cumulative = -9.80438e-07
DICPCG:  Solving for p, Initial residual = 0.00113877, Final residual = 9.01611e-07, No Iterations 58
time step continuity errors : sum local = 8.50988e-10, global = 3.01018e-11, cumulative = -9.80408e-07
ExecutionTime = 6.563 s  ClockTime = 7 s

Courant Number mean: 0.0387639 max: 0.425736
Time = 0.00029

DICPCG:  Solving for cellMotionUx, Initial residual = 3.75424e-06, Final residual = 7.14078e-09, No Iterations 18
DICPCG:  Solving for pcorr, Initial residual = 1, Final residual = 0.00997697, No Iterations 17
time step continuity errors : sum local = 8.49029e-12, global = 4.81545e-14, cumulative = -9.80408e-07
DILUPBiCG:  Solving for Ux, Initial residual = 0.00326451, Final residual = 2.18118e-07, No Iterations 2
DILUPBiCG:  Solving for Uy, Initial residual = 0.00340725, Final residual = 4.10649e-07, No Iterations 2
DILUPBiCG:  Solving for Uz, Initial residual = 0.00962047, Final residual = 7.95343e-06, No Iterations 1
DICPCG:  Solving for p, Initial residual = 0.00764061, Final residual = 0.000337078, No Iterations 9
time step continuity errors : sum local = 3.16479e-07, global = 1.57846e-09, cumulative = -9.78829e-07
DICPCG:  Solving for p, Initial residual = 0.00112434, Final residual = 8.11839e-07, No Iterations 59
time step continuity errors : sum local = 7.60957e-10, global = 1.91638e-11, cumulative = -9.7881e-07
ExecutionTime = 6.672 s  ClockTime = 7 s

Courant Number mean: 0.0387429 max: 0.424753
Time = 0.000295

DICPCG:  Solving for cellMotionUx, Initial residual = 3.71065e-06, Final residual = 7.13993e-09, No Iterations 18
DICPCG:  Solving for pcorr, Initial residual = 1, Final residual = 0.00824221, No Iterations 17
time step continuity errors : sum local = 6.27197e-12, global = 7.82873e-14, cumulative = -9.7881e-07
DILUPBiCG:  Solving for Ux, Initial residual = 0.00323739, Final residual = 2.20399e-07, No Iterations 2
DILUPBiCG:  Solving for Uy, Initial residual = 0.00336132, Final residual = 4.38013e-07, No Iterations 2
DILUPBiCG:  Solving for Uz, Initial residual = 0.0102043, Final residual = 8.27704e-06, No Iterations 1
DICPCG:  Solving for p, Initial residual = 0.00758123, Final residual = 0.00033714, No Iterations 9
time step continuity errors : sum local = 3.14335e-07, global = 1.53977e-09, cumulative = -9.7727e-07
DICPCG:  Solving for p, Initial residual = 0.00111694, Final residual = 8.36889e-07, No Iterations 59
time step continuity errors : sum local = 7.7883e-10, global = 1.7413e-11, cumulative = -9.77253e-07
ExecutionTime = 6.782 s  ClockTime = 7 s

Courant Number mean: 0.0387291 max: 0.423883
Time = 0.0003

DICPCG:  Solving for cellMotionUx, Initial residual = 3.66768e-06, Final residual = 7.13801e-09, No Iterations 18
DICPCG:  Solving for pcorr, Initial residual = 1, Final residual = 0.00824487, No Iterations 16
time step continuity errors : sum local = 6.42136e-12, global = 2.41457e-13, cumulative = -9.77253e-07
DILUPBiCG:  Solving for Ux, Initial residual = 0.00321219, Final residual = 2.21771e-07, No Iterations 2
DILUPBiCG:  Solving for Uy, Initial residual = 0.0033163, Final residual = 5.0965e-07, No Iterations 2
DILUPBiCG:  Solving for Uz, Initial residual = 0.0102398, Final residual = 8.14876e-06, No Iterations 1
DICPCG:  Solving for p, Initial residual = 0.00755666, Final residual = 0.000338316, No Iterations 9
time step continuity errors : sum local = 3.13159e-07, global = 1.53374e-09, cumulative = -9.75719e-07
DICPCG:  Solving for p, Initial residual = 0.00110988, Final residual = 8.46282e-07, No Iterations 59
time step continuity errors : sum local = 7.81736e-10, global = 1.67208e-11, cumulative = -9.75702e-07
ExecutionTime = 6.891 s  ClockTime = 7 s

Courant Number mean: 0.0387223 max: 0.423125
Time = 0.000305

DICPCG:  Solving for cellMotionUx, Initial residual = 3.62529e-06, Final residual = 7.13526e-09, No Iterations 18
DICPCG:  Solving for pcorr, Initial residual = 1, Final residual = 0.00923712, No Iterations 15
time step continuity errors : sum local = 7.22099e-12, global = 3.88966e-13, cumulative = -9.75702e-07
DILUPBiCG:  Solving for Ux, Initial residual = 0.00318963, Final residual = 2.22309e-07, No Iterations 2
DILUPBiCG:  Solving for Uy, Initial residual = 0.00328618, Final residual = 7.68918e-07, No Iterations 2
DILUPBiCG:  Solving for Uz, Initial residual = 0.00983411, Final residual = 8.18377e-06, No Iterations 1
DICPCG:  Solving for p, Initial residual = 0.00756658, Final residual = 0.00033966, No Iterations 9
time step continuity errors : sum local = 3.12069e-07, global = 1.52161e-09, cumulative = -9.7418e-07
DICPCG:  Solving for p, Initial residual = 0.00110434, Final residual = 8.49978e-07, No Iterations 59
time step continuity errors : sum local = 7.79187e-10, global = 1.62976e-11, cumulative = -9.74164e-07
ExecutionTime = 7.001 s  ClockTime = 7 s

Courant Number mean: 0.038719 max: 0.422476
Time = 0.00031

DICPCG:  Solving for cellMotionUx, Initial residual = 3.58346e-06, Final residual = 7.13189e-09, No Iterations 18
DICPCG:  Solving for pcorr, Initial residual = 1, Final residual = 0.00829752, No Iterations 15
time step continuity errors : sum local = 6.46532e-12, global = 3.89738e-13, cumulative = -9.74164e-07
DILUPBiCG:  Solving for Ux, Initial residual = 0.00316676, Final residual = 2.22071e-07, No Iterations 2
DILUPBiCG:  Solving for Uy, Initial residual = 0.00326251, Final residual = 3.98068e-06, No Iterations 2
DILUPBiCG:  Solving for Uz, Initial residual = 0.00974135, Final residual = 8.21984e-06, No Iterations 1
DICPCG:  Solving for p, Initial residual = 0.00762068, Final residual = 0.000341496, No Iterations 9
time step continuity errors : sum local = 3.11383e-07, global = 1.50983e-09, cumulative = -9.72654e-07
DICPCG:  Solving for p, Initial residual = 0.00110479, Final residual = 8.51397e-07, No Iterations 59
time step continuity errors : sum local = 7.74508e-10, global = 1.57203e-11, cumulative = -9.72638e-07
ExecutionTime = 7.11 s  ClockTime = 7 s

Courant Number mean: 0.0387213 max: 0.421933
Time = 0.000315

DICPCG:  Solving for cellMotionUx, Initial residual = 3.54223e-06, Final residual = 7.12815e-09, No Iterations 18
DICPCG:  Solving for pcorr, Initial residual = 1, Final residual = 0.00775839, No Iterations 15
time step continuity errors : sum local = 6.00893e-12, global = 3.87702e-13, cumulative = -9.72638e-07
DILUPBiCG:  Solving for Ux, Initial residual = 0.00314756, Final residual = 2.2085e-07, No Iterations 2
DILUPBiCG:  Solving for Uy, Initial residual = 0.00323695, Final residual = 9.18803e-07, No Iterations 2
DILUPBiCG:  Solving for Uz, Initial residual = 0.0100823, Final residual = 8.13823e-06, No Iterations 1
DICPCG:  Solving for p, Initial residual = 0.00768452, Final residual = 0.000343609, No Iterations 9
time step continuity errors : sum local = 3.10903e-07, global = 1.49738e-09, cumulative = -9.7114e-07
DICPCG:  Solving for p, Initial residual = 0.00110601, Final residual = 8.45078e-07, No Iterations 59
time step continuity errors : sum local = 7.62735e-10, global = 1.48506e-11, cumulative = -9.71125e-07
ExecutionTime = 7.219 s  ClockTime = 7 s

Courant Number mean: 0.0387323 max: 0.421494
Time = 0.00032

DICPCG:  Solving for cellMotionUx, Initial residual = 3.50159e-06, Final residual = 7.12405e-09, No Iterations 18
DICPCG:  Solving for pcorr, Initial residual = 1, Final residual = 0.00951869, No Iterations 14
time step continuity errors : sum local = 7.26024e-12, global = 4.04981e-13, cumulative = -9.71125e-07
DILUPBiCG:  Solving for Ux, Initial residual = 0.00312525, Final residual = 9.76542e-06, No Iterations 1
DILUPBiCG:  Solving for Uy, Initial residual = 0.00321169, Final residual = 3.80153e-07, No Iterations 2
DILUPBiCG:  Solving for Uz, Initial residual = 0.0100492, Final residual = 8.3957e-06, No Iterations 1
DICPCG:  Solving for p, Initial residual = 0.00772606, Final residual = 0.000384193, No Iterations 8
time step continuity errors : sum local = 3.44976e-07, global = 1.32669e-09, cumulative = -9.69798e-07
DICPCG:  Solving for p, Initial residual = 0.00115104, Final residual = 6.95148e-07, No Iterations 58
time step continuity errors : sum local = 6.22728e-10, global = 1.50452e-11, cumulative = -9.69783e-07
ExecutionTime = 7.329 s  ClockTime = 7 s

Courant Number mean: 0.0387517 max: 0.421152
Time = 0.000325

DICPCG:  Solving for cellMotionUx, Initial residual = 3.46151e-06, Final residual = 7.12084e-09, No Iterations 18
DICPCG:  Solving for pcorr, Initial residual = 1, Final residual = 0.0084484, No Iterations 13
time step continuity errors : sum local = 5.26105e-12, global = 2.78531e-13, cumulative = -9.69783e-07
DILUPBiCG:  Solving for Ux, Initial residual = 0.00310416, Final residual = 8.41153e-06, No Iterations 1
DILUPBiCG:  Solving for Uy, Initial residual = 0.00319808, Final residual = 2.78089e-07, No Iterations 2
DILUPBiCG:  Solving for Uz, Initial residual = 0.00968348, Final residual = 8.22973e-06, No Iterations 1
DICPCG:  Solving for p, Initial residual = 0.00775397, Final residual = 0.000379653, No Iterations 8
time step continuity errors : sum local = 3.38414e-07, global = 1.34244e-09, cumulative = -9.68441e-07
DICPCG:  Solving for p, Initial residual = 0.00114646, Final residual = 8.03953e-07, No Iterations 58
time step continuity errors : sum local = 7.1501e-10, global = 2.50706e-11, cumulative = -9.68416e-07
ExecutionTime = 7.438 s  ClockTime = 7 s

Courant Number mean: 0.0387721 max: 0.420903
Time = 0.00033

DICPCG:  Solving for cellMotionUx, Initial residual = 3.42202e-06, Final residual = 7.11738e-09, No Iterations 18
DICPCG:  Solving for pcorr, Initial residual = 1, Final residual = 0.00961851, No Iterations 13
time step continuity errors : sum local = 6.87733e-12, global = 3.48783e-13, cumulative = -9.68415e-07
DILUPBiCG:  Solving for Ux, Initial residual = 0.00308523, Final residual = 7.25717e-06, No Iterations 1
DILUPBiCG:  Solving for Uy, Initial residual = 0.00318861, Final residual = 2.89331e-07, No Iterations 2
DILUPBiCG:  Solving for Uz, Initial residual = 0.00983034, Final residual = 7.93249e-06, No Iterations 1
DICPCG:  Solving for p, Initial residual = 0.00776437, Final residual = 0.000378852, No Iterations 8
time step continuity errors : sum local = 3.35352e-07, global = 1.30543e-09, cumulative = -9.6711e-07
DICPCG:  Solving for p, Initial residual = 0.00114029, Final residual = 8.56565e-07, No Iterations 58
time step continuity errors : sum local = 7.56621e-10, global = 2.97921e-11, cumulative = -9.6708e-07
ExecutionTime = 7.548 s  ClockTime = 8 s

Courant Number mean: 0.0387952 max: 0.420741
Time = 0.000335

DICPCG:  Solving for cellMotionUx, Initial residual = 3.38311e-06, Final residual = 7.11392e-09, No Iterations 18
DICPCG:  Solving for pcorr, Initial residual = 1, Final residual = 0.00998656, No Iterations 13
time step continuity errors : sum local = 7.55605e-12, global = 4.01181e-13, cumulative = -9.6708e-07
DILUPBiCG:  Solving for Ux, Initial residual = 0.0030663, Final residual = 6.9548e-06, No Iterations 1
DILUPBiCG:  Solving for Uy, Initial residual = 0.00318135, Final residual = 3.16535e-07, No Iterations 2
DILUPBiCG:  Solving for Uz, Initial residual = 0.0100429, Final residual = 8.08734e-06, No Iterations 1
DICPCG:  Solving for p, Initial residual = 0.00775424, Final residual = 0.000379033, No Iterations 8
time step continuity errors : sum local = 3.33282e-07, global = 1.28786e-09, cumulative = -9.65792e-07
DICPCG:  Solving for p, Initial residual = 0.00113236, Final residual = 9.21385e-07, No Iterations 58
time step continuity errors : sum local = 8.08505e-10, global = 3.42563e-11, cumulative = -9.65757e-07
ExecutionTime = 7.657 s  ClockTime = 8 s

Courant Number mean: 0.0388177 max: 0.420661
Time = 0.00034

DICPCG:  Solving for cellMotionUx, Initial residual = 3.34484e-06, Final residual = 7.1105e-09, No Iterations 18
DICPCG:  Solving for pcorr, Initial residual = 1, Final residual = 0.00780326, No Iterations 14
time step continuity errors : sum local = 6.30898e-12, global = 4.95868e-13, cumulative = -9.65757e-07
DILUPBiCG:  Solving for Ux, Initial residual = 0.00305249, Final residual = 7.7794e-06, No Iterations 1
DILUPBiCG:  Solving for Uy, Initial residual = 0.00317499, Final residual = 3.57779e-07, No Iterations 2
DILUPBiCG:  Solving for Uz, Initial residual = 0.00997164, Final residual = 8.52145e-06, No Iterations 1
DICPCG:  Solving for p, Initial residual = 0.00772529, Final residual = 0.000379764, No Iterations 8
time step continuity errors : sum local = 3.31751e-07, global = 1.27109e-09, cumulative = -9.64486e-07
DICPCG:  Solving for p, Initial residual = 0.00112593, Final residual = 9.81048e-07, No Iterations 58
time step continuity errors : sum local = 8.55241e-10, global = 3.69138e-11, cumulative = -9.64449e-07
ExecutionTime = 7.766 s  ClockTime = 8 s

Courant Number mean: 0.0388404 max: 0.420656
Time = 0.000345

DICPCG:  Solving for cellMotionUx, Initial residual = 3.30718e-06, Final residual = 7.10714e-09, No Iterations 18
DICPCG:  Solving for pcorr, Initial residual = 1, Final residual = 0.00826269, No Iterations 14
time step continuity errors : sum local = 7.06659e-12, global = 5.7182e-13, cumulative = -9.64448e-07
DILUPBiCG:  Solving for Ux, Initial residual = 0.0030406, Final residual = 9.1546e-06, No Iterations 1
DILUPBiCG:  Solving for Uy, Initial residual = 0.00316705, Final residual = 4.17074e-07, No Iterations 2
DILUPBiCG:  Solving for Uz, Initial residual = 0.0101997, Final residual = 8.36785e-06, No Iterations 1
DICPCG:  Solving for p, Initial residual = 0.00768042, Final residual = 0.000380966, No Iterations 8
time step continuity errors : sum local = 3.30719e-07, global = 1.25548e-09, cumulative = -9.63193e-07
DICPCG:  Solving for p, Initial residual = 0.00111764, Final residual = 7.65414e-07, No Iterations 59
time step continuity errors : sum local = 6.63214e-10, global = 2.37425e-11, cumulative = -9.63169e-07
ExecutionTime = 7.876 s  ClockTime = 8 s

Courant Number mean: 0.0388661 max: 0.420721
Time = 0.00035

DICPCG:  Solving for cellMotionUx, Initial residual = 3.27004e-06, Final residual = 7.10395e-09, No Iterations 18
DICPCG:  Solving for pcorr, Initial residual = 1, Final residual = 0.00871796, No Iterations 13
time step continuity errors : sum local = 5.78188e-12, global = 2.65795e-13, cumulative = -9.63169e-07
[...]
DILUPBiCG:  Solving for Uz, Initial residual = 0.0335302, Final residual = 2.99201e-06, No Iterations 2
DICPCG:  Solving for p, Initial residual = 0.00409222, Final residual = 0.000203671, No Iterations 18
time step continuity errors : sum local = 1.11764e-07, global = 2.24832e-09, cumulative = 4.05233e-07
DICPCG:  Solving for p, Initial residual = 0.000688921, Final residual = 9.46193e-07, No Iterations 64
time step continuity errors : sum local = 5.19897e-10, global = 5.91002e-12, cumulative = 4.05239e-07
ExecutionTime = 66.911 s  ClockTime = 67 s

Courant Number mean: 0.0609647 max: 0.611149
Time = 0.00292

DICPCG:  Solving for cellMotionUx, Initial residual = 3.33649e-06, Final residual = 9.13332e-09, No Iterations 27
DICPCG:  Solving for pcorr, Initial residual = 1, Final residual = 0.0079386, No Iterations 15
time step continuity errors : sum local = 4.12726e-12, global = 1.04561e-13, cumulative = 4.05239e-07
DILUPBiCG:  Solving for Ux, Initial residual = 0.00127059, Final residual = 3.39304e-07, No Iterations 2
DILUPBiCG:  Solving for Uy, Initial residual = 0.00240155, Final residual = 3.10844e-06, No Iterations 2
DILUPBiCG:  Solving for Uz, Initial residual = 0.0324634, Final residual = 7.33474e-06, No Iterations 2
DICPCG:  Solving for p, Initial residual = 0.00410992, Final residual = 0.000166762, No Iterations 19
time step continuity errors : sum local = 9.16725e-08, global = 7.93829e-10, cumulative = 4.06032e-07
DICPCG:  Solving for p, Initial residual = 0.000673022, Final residual = 8.88151e-07, No Iterations 64
time step continuity errors : sum local = 4.8889e-10, global = 4.50925e-12, cumulative = 4.06037e-07
ExecutionTime = 67.036 s  ClockTime = 67 s

Courant Number mean: 0.0611207 max: 0.616971
Time = 0.002925

DICPCG:  Solving for cellMotionUx, Initial residual = 3.38382e-06, Final residual = 9.4433e-09, No Iterations 27
DICPCG:  Solving for pcorr, Initial residual = 1, Final residual = 0.00741233, No Iterations 14
time step continuity errors : sum local = 3.62381e-12, global = -8.24067e-14, cumulative = 4.06037e-07
DILUPBiCG:  Solving for Ux, Initial residual = 0.00127131, Final residual = 3.23085e-07, No Iterations 2
DILUPBiCG:  Solving for Uy, Initial residual = 0.00239695, Final residual = 3.01373e-06, No Iterations 2
DILUPBiCG:  Solving for Uz, Initial residual = 0.0330896, Final residual = 1.18805e-07, No Iterations 3
DICPCG:  Solving for p, Initial residual = 0.0041303, Final residual = 0.000177588, No Iterations 19
time step continuity errors : sum local = 9.78007e-08, global = 8.35336e-10, cumulative = 4.06872e-07
DICPCG:  Solving for p, Initial residual = 0.000685225, Final residual = 9.42317e-07, No Iterations 64
time step continuity errors : sum local = 5.19661e-10, global = 3.50238e-12, cumulative = 4.06876e-07
ExecutionTime = 67.145 s  ClockTime = 67 s

Courant Number mean: 0.0612787 max: 0.622903
Time = 0.00293

DICPCG:  Solving for cellMotionUx, Initial residual = 3.43244e-06, Final residual = 9.64785e-09, No Iterations 27
DICPCG:  Solving for pcorr, Initial residual = 1, Final residual = 0.00756308, No Iterations 14
time step continuity errors : sum local = 3.93023e-12, global = -8.06593e-14, cumulative = 4.06876e-07
DILUPBiCG:  Solving for Ux, Initial residual = 0.00127211, Final residual = 3.06193e-07, No Iterations 2
DILUPBiCG:  Solving for Uy, Initial residual = 0.0023924, Final residual = 2.92755e-06, No Iterations 2
DILUPBiCG:  Solving for Uz, Initial residual = 0.0323118, Final residual = 1.37246e-07, No Iterations 3
DICPCG:  Solving for p, Initial residual = 0.0041478, Final residual = 0.000185204, No Iterations 19
time step continuity errors : sum local = 1.02185e-07, global = 7.8603e-10, cumulative = 4.07662e-07
DICPCG:  Solving for p, Initial residual = 0.00069571, Final residual = 9.49401e-07, No Iterations 64
time step continuity errors : sum local = 5.24568e-10, global = 2.36336e-12, cumulative = 4.07664e-07
ExecutionTime = 67.27 s  ClockTime = 67 s

Courant Number mean: 0.0614391 max: 0.628948
Time = 0.002935

DICPCG:  Solving for cellMotionUx, Initial residual = 3.48215e-06, Final residual = 9.90371e-09, No Iterations 27
DICPCG:  Solving for pcorr, Initial residual = 1, Final residual = 0.00744917, No Iterations 14
time step continuity errors : sum local = 3.9076e-12, global = -7.21783e-14, cumulative = 4.07664e-07
DILUPBiCG:  Solving for Ux, Initial residual = 0.00127324, Final residual = 2.8857e-07, No Iterations 2
DILUPBiCG:  Solving for Uy, Initial residual = 0.00238761, Final residual = 2.84837e-06, No Iterations 2
DILUPBiCG:  Solving for Uz, Initial residual = 0.03162, Final residual = 1.84309e-06, No Iterations 2
DICPCG:  Solving for p, Initial residual = 0.00416649, Final residual = 0.000192749, No Iterations 19
time step continuity errors : sum local = 1.06555e-07, global = 7.24328e-10, cumulative = 4.08388e-07
DICPCG:  Solving for p, Initial residual = 0.000706257, Final residual = 9.31186e-07, No Iterations 64
time step continuity errors : sum local = 5.15532e-10, global = 1.15729e-12, cumulative = 4.08389e-07
ExecutionTime = 67.395 s  ClockTime = 67 s

Courant Number mean: 0.0616016 max: 0.635109
Time = 0.00294

DICPCG:  Solving for cellMotionUx, Initial residual = 3.53328e-06, Final residual = 4.81988e-09, No Iterations 28
DICPCG:  Solving for pcorr, Initial residual = 1, Final residual = 0.00721848, No Iterations 14
time step continuity errors : sum local = 3.72136e-12, global = -5.9305e-14, cumulative = 4.08389e-07
DILUPBiCG:  Solving for Ux, Initial residual = 0.00127488, Final residual = 2.70284e-07, No Iterations 2
DILUPBiCG:  Solving for Uy, Initial residual = 0.00238245, Final residual = 2.7759e-06, No Iterations 2
DILUPBiCG:  Solving for Uz, Initial residual = 0.0325722, Final residual = 3.63789e-06, No Iterations 2
DICPCG:  Solving for p, Initial residual = 0.00418594, Final residual = 0.000194983, No Iterations 19
time step continuity errors : sum local = 1.08011e-07, global = 6.03493e-10, cumulative = 4.08993e-07
DICPCG:  Solving for p, Initial residual = 0.000714237, Final residual = 8.90307e-07, No Iterations 64
time step continuity errors : sum local = 4.93937e-10, global = 8.37405e-14, cumulative = 4.08993e-07
ExecutionTime = 67.521 s  ClockTime = 68 s

Courant Number mean: 0.0617663 max: 0.641389
Time = 0.002945

DICPCG:  Solving for cellMotionUx, Initial residual = 3.58614e-06, Final residual = 5.0629e-09, No Iterations 28
DICPCG:  Solving for pcorr, Initial residual = 1, Final residual = 0.00991216, No Iterations 13
time step continuity errors : sum local = 4.89598e-12, global = -6.91261e-14, cumulative = 4.08993e-07
DILUPBiCG:  Solving for Ux, Initial residual = 0.00127662, Final residual = 2.51256e-07, No Iterations 2
DILUPBiCG:  Solving for Uy, Initial residual = 0.00237706, Final residual = 2.70945e-06, No Iterations 2
DILUPBiCG:  Solving for Uz, Initial residual = 0.0337716, Final residual = 1.38759e-07, No Iterations 3
DICPCG:  Solving for p, Initial residual = 0.00420662, Final residual = 0.000202052, No Iterations 19
time step continuity errors : sum local = 1.12173e-07, global = 5.30681e-10, cumulative = 4.09524e-07
DICPCG:  Solving for p, Initial residual = 0.000724934, Final residual = 8.55958e-07, No Iterations 64
time step continuity errors : sum local = 4.75954e-10, global = -9.17784e-13, cumulative = 4.09523e-07
ExecutionTime = 67.63 s  ClockTime = 68 s

Courant Number mean: 0.0619334 max: 0.647794
Time = 0.00295

DICPCG:  Solving for cellMotionUx, Initial residual = 3.63998e-06, Final residual = 5.1574e-09, No Iterations 28
DICPCG:  Solving for pcorr, Initial residual = 1, Final residual = 0.00887509, No Iterations 13
time step continuity errors : sum local = 4.22414e-12, global = -4.50529e-14, cumulative = 4.09523e-07
DILUPBiCG:  Solving for Ux, Initial residual = 0.0012784, Final residual = 2.31553e-07, No Iterations 2
DILUPBiCG:  Solving for Uy, Initial residual = 0.00237152, Final residual = 2.648e-06, No Iterations 2
DILUPBiCG:  Solving for Uz, Initial residual = 0.0340369, Final residual = 2.82552e-06, No Iterations 3
DICPCG:  Solving for p, Initial residual = 0.00422895, Final residual = 0.000170621, No Iterations 20
time step continuity errors : sum local = 9.4942e-08, global = 1.6434e-10, cumulative = 4.09687e-07
DICPCG:  Solving for p, Initial residual = 0.00071861, Final residual = 7.87974e-07, No Iterations 64
time step continuity errors : sum local = 4.39195e-10, global = -1.36602e-12, cumulative = 4.09686e-07
ExecutionTime = 67.755 s  ClockTime = 68 s

Courant Number mean: 0.0621028 max: 0.654325
Time = 0.002955

DICPCG:  Solving for cellMotionUx, Initial residual = 3.6953e-06, Final residual = 5.44066e-09, No Iterations 28
DICPCG:  Solving for pcorr, Initial residual = 1, Final residual = 0.00904586, No Iterations 13
time step continuity errors : sum local = 3.97289e-12, global = -4.89978e-14, cumulative = 4.09686e-07
DILUPBiCG:  Solving for Ux, Initial residual = 0.00128035, Final residual = 2.10988e-07, No Iterations 2
DILUPBiCG:  Solving for Uy, Initial residual = 0.00236567, Final residual = 2.59149e-06, No Iterations 2
DILUPBiCG:  Solving for Uz, Initial residual = 0.034671, Final residual = 8.18079e-06, No Iterations 2
DICPCG:  Solving for p, Initial residual = 0.00425611, Final residual = 0.000207249, No Iterations 19
time step continuity errors : sum local = 1.156e-07, global = 2.7272e-10, cumulative = 4.09958e-07
DICPCG:  Solving for p, Initial residual = 0.000744457, Final residual = 7.83667e-07, No Iterations 64
time step continuity errors : sum local = 4.37858e-10, global = -3.45415e-12, cumulative = 4.09955e-07
ExecutionTime = 67.864 s  ClockTime = 68 s

Courant Number mean: 0.0622747 max: 0.660989
Time = 0.00296

DICPCG:  Solving for cellMotionUx, Initial residual = 3.752e-06, Final residual = 9.49355e-09, No Iterations 27
DICPCG:  Solving for pcorr, Initial residual = 1, Final residual = 0.00754, No Iterations 13
time step continuity errors : sum local = 3.30145e-12, global = -3.26666e-15, cumulative = 4.09955e-07
DILUPBiCG:  Solving for Ux, Initial residual = 0.00128252, Final residual = 1.90145e-07, No Iterations 2
DILUPBiCG:  Solving for Uy, Initial residual = 0.00235956, Final residual = 2.53971e-06, No Iterations 2
DILUPBiCG:  Solving for Uz, Initial residual = 0.0354079, Final residual = 3.99184e-06, No Iterations 2
DICPCG:  Solving for p, Initial residual = 0.00427772, Final residual = 0.000172794, No Iterations 20
time step continuity errors : sum local = 9.66225e-08, global = 1.15791e-10, cumulative = 4.10071e-07
DICPCG:  Solving for p, Initial residual = 0.000737125, Final residual = 7.73808e-07, No Iterations 64
time step continuity errors : sum local = 4.3347e-10, global = -3.97196e-12, cumulative = 4.10067e-07
ExecutionTime = 67.989 s  ClockTime = 68 s

Courant Number mean: 0.0624495 max: 0.667788
Time = 0.002965

DICPCG:  Solving for cellMotionUx, Initial residual = 3.81028e-06, Final residual = 9.93256e-09, No Iterations 26
DICPCG:  Solving for pcorr, Initial residual = 1, Final residual = 0.00808839, No Iterations 13
time step continuity errors : sum local = 3.50608e-12, global = 1.9828e-14, cumulative = 4.10067e-07
DILUPBiCG:  Solving for Ux, Initial residual = 0.00128477, Final residual = 1.68977e-07, No Iterations 2
DILUPBiCG:  Solving for Uy, Initial residual = 0.00235355, Final residual = 2.49206e-06, No Iterations 2
DILUPBiCG:  Solving for Uz, Initial residual = 0.0344348, Final residual = 2.86474e-06, No Iterations 2
DICPCG:  Solving for p, Initial residual = 0.00430669, Final residual = 0.000177167, No Iterations 20
time step continuity errors : sum local = 9.93264e-08, global = 7.44591e-11, cumulative = 4.10141e-07
DICPCG:  Solving for p, Initial residual = 0.000748117, Final residual = 7.73053e-07, No Iterations 64
time step continuity errors : sum local = 4.34207e-10, global = -5.41121e-12, cumulative = 4.10136e-07
ExecutionTime = 68.099 s  ClockTime = 68 s

Courant Number mean: 0.0626275 max: 0.674727
Time = 0.00297

DICPCG:  Solving for cellMotionUx, Initial residual = 3.87066e-06, Final residual = 9.52543e-09, No Iterations 27
DICPCG:  Solving for pcorr, Initial residual = 1, Final residual = 0.00815423, No Iterations 13
time step continuity errors : sum local = 3.54062e-12, global = 4.91241e-14, cumulative = 4.10136e-07
DILUPBiCG:  Solving for Ux, Initial residual = 0.00128726, Final residual = 1.49187e-07, No Iterations 2
DILUPBiCG:  Solving for Uy, Initial residual = 0.00234753, Final residual = 2.4485e-06, No Iterations 2
DILUPBiCG:  Solving for Uz, Initial residual = 0.0323499, Final residual = 1.92186e-06, No Iterations 2
DICPCG:  Solving for p, Initial residual = 0.00433152, Final residual = 0.000184281, No Iterations 20
time step continuity errors : sum local = 1.0361e-07, global = -2.80649e-11, cumulative = 4.10108e-07
DICPCG:  Solving for p, Initial residual = 0.000760296, Final residual = 7.76312e-07, No Iterations 64
time step continuity errors : sum local = 4.37375e-10, global = -7.31877e-12, cumulative = 4.101e-07
ExecutionTime = 68.224 s  ClockTime = 68 s

Courant Number mean: 0.0628081 max: 0.68181
Time = 0.002975

DICPCG:  Solving for cellMotionUx, Initial residual = 3.93161e-06, Final residual = 9.32752e-09, No Iterations 26
DICPCG:  Solving for pcorr, Initial residual = 1, Final residual = 0.00864164, No Iterations 13
time step continuity errors : sum local = 3.77964e-12, global = 6.28745e-14, cumulative = 4.101e-07
DILUPBiCG:  Solving for Ux, Initial residual = 0.00128983, Final residual = 1.30809e-07, No Iterations 2
DILUPBiCG:  Solving for Uy, Initial residual = 0.00234138, Final residual = 2.40845e-06, No Iterations 2
DILUPBiCG:  Solving for Uz, Initial residual = 0.0352764, Final residual = 1.40606e-06, No Iterations 2
DICPCG:  Solving for p, Initial residual = 0.0043558, Final residual = 0.000187197, No Iterations 20
time step continuity errors : sum local = 1.05589e-07, global = -9.10352e-12, cumulative = 4.10091e-07
DICPCG:  Solving for p, Initial residual = 0.000770017, Final residual = 8.10646e-07, No Iterations 64
time step continuity errors : sum local = 4.58228e-10, global = -9.26416e-12, cumulative = 4.10082e-07
ExecutionTime = 68.333 s  ClockTime = 68 s

Courant Number mean: 0.0629916 max: 0.689043
Time = 0.00298

DICPCG:  Solving for cellMotionUx, Initial residual = 3.99557e-06, Final residual = 8.82488e-09, No Iterations 26
DICPCG:  Solving for pcorr, Initial residual = 1, Final residual = 0.00937752, No Iterations 13
time step continuity errors : sum local = 4.29705e-12, global = 5.86145e-14, cumulative = 4.10082e-07
DILUPBiCG:  Solving for Ux, Initial residual = 0.00129241, Final residual = 1.14703e-07, No Iterations 2
DILUPBiCG:  Solving for Uy, Initial residual = 0.00233554, Final residual = 2.37226e-06, No Iterations 2
DILUPBiCG:  Solving for Uz, Initial residual = 0.0347703, Final residual = 9.87082e-07, No Iterations 2
DICPCG:  Solving for p, Initial residual = 0.00438161, Final residual = 0.000195971, No Iterations 20
time step continuity errors : sum local = 1.10904e-07, global = -1.86394e-10, cumulative = 4.09896e-07
DICPCG:  Solving for p, Initial residual = 0.000784935, Final residual = 9.45233e-07, No Iterations 64
time step continuity errors : sum local = 5.36103e-10, global = -1.17695e-11, cumulative = 4.09884e-07
ExecutionTime = 68.458 s  ClockTime = 68 s

Courant Number mean: 0.0631781 max: 0.69643
Time = 0.002985

DICPCG:  Solving for cellMotionUx, Initial residual = 4.06081e-06, Final residual = 8.64962e-09, No Iterations 26
DICPCG:  Solving for pcorr, Initial residual = 1, Final residual = 0.00958072, No Iterations 13
time step continuity errors : sum local = 5.13626e-12, global = 3.1728e-14, cumulative = 4.09884e-07
DILUPBiCG:  Solving for Ux, Initial residual = 0.00129513, Final residual = 1.03763e-07, No Iterations 2
DILUPBiCG:  Solving for Uy, Initial residual = 0.0023296, Final residual = 2.33977e-06, No Iterations 2
DILUPBiCG:  Solving for Uz, Initial residual = 0.0362325, Final residual = 1.52587e-06, No Iterations 2
DICPCG:  Solving for p, Initial residual = 0.00440763, Final residual = 0.000197341, No Iterations 20
time step continuity errors : sum local = 1.12056e-07, global = -2.20674e-10, cumulative = 4.09663e-07
DICPCG:  Solving for p, Initial residual = 0.000795868, Final residual = 7.7027e-07, No Iterations 65
time step continuity errors : sum local = 4.38367e-10, global = -9.30476e-12, cumulative = 4.09654e-07
ExecutionTime = 68.567 s  ClockTime = 69 s

Courant Number mean: 0.0633679 max: 0.703977
Time = 0.00299

DICPCG:  Solving for cellMotionUx, Initial residual = 4.12792e-06, Final residual = 8.44765e-09, No Iterations 26
DICPCG:  Solving for pcorr, Initial residual = 1, Final residual = 0.00669619, No Iterations 14
time step continuity errors : sum local = 2.93539e-12, global = 4.87587e-15, cumulative = 4.09654e-07
DILUPBiCG:  Solving for Ux, Initial residual = 0.00129794, Final residual = 1.20852e-07, No Iterations 2
DILUPBiCG:  Solving for Uy, Initial residual = 0.00232368, Final residual = 2.31033e-06, No Iterations 2
DILUPBiCG:  Solving for Uz, Initial residual = 0.0380994, Final residual = 1.34927e-06, No Iterations 2
DICPCG:  Solving for p, Initial residual = 0.00443682, Final residual = 0.000204211, No Iterations 20
time step continuity errors : sum local = 1.16356e-07, global = -2.98521e-10, cumulative = 4.09355e-07
DICPCG:  Solving for p, Initial residual = 0.000808927, Final residual = 7.62657e-07, No Iterations 65
time step continuity errors : sum local = 4.35553e-10, global = -7.67002e-12, cumulative = 4.09348e-07
ExecutionTime = 68.692 s  ClockTime = 69 s

Courant Number mean: 0.0635607 max: 0.711688
Time = 0.002995

DICPCG:  Solving for cellMotionUx, Initial residual = 4.19691e-06, Final residual = 8.34321e-09, No Iterations 26
DICPCG:  Solving for pcorr, Initial residual = 1, Final residual = 0.00848893, No Iterations 13
time step continuity errors : sum local = 3.69738e-12, global = 7.19151e-15, cumulative = 4.09348e-07
DILUPBiCG:  Solving for Ux, Initial residual = 0.00130124, Final residual = 1.51085e-07, No Iterations 2
DILUPBiCG:  Solving for Uy, Initial residual = 0.00231797, Final residual = 2.2838e-06, No Iterations 2
DILUPBiCG:  Solving for Uz, Initial residual = 0.0352006, Final residual = 1.6051e-06, No Iterations 2
DICPCG:  Solving for p, Initial residual = 0.00446826, Final residual = 0.000208939, No Iterations 20
time step continuity errors : sum local = 1.19468e-07, global = -3.56353e-10, cumulative = 4.08991e-07
DICPCG:  Solving for p, Initial residual = 0.000821651, Final residual = 8.02231e-07, No Iterations 65
time step continuity errors : sum local = 4.59788e-10, global = -8.29644e-12, cumulative = 4.08983e-07
ExecutionTime = 68.802 s  ClockTime = 69 s

Courant Number mean: 0.0637572 max: 0.71957
Time = 0.003

DICPCG:  Solving for cellMotionUx, Initial residual = 4.2679e-06, Final residual = 8.28434e-09, No Iterations 26
DICPCG:  Solving for pcorr, Initial residual = 1, Final residual = 0.00845264, No Iterations 13
time step continuity errors : sum local = 3.88643e-12, global = 9.37206e-15, cumulative = 4.08983e-07
DILUPBiCG:  Solving for Ux, Initial residual = 0.00130484, Final residual = 1.86001e-07, No Iterations 2
DILUPBiCG:  Solving for Uy, Initial residual = 0.00231234, Final residual = 2.2605e-06, No Iterations 2
DILUPBiCG:  Solving for Uz, Initial residual = 0.0364666, Final residual = 1.20891e-06, No Iterations 2
DICPCG:  Solving for p, Initial residual = 0.0045045, Final residual = 0.000214016, No Iterations 20
time step continuity errors : sum local = 1.22809e-07, global = -4.13418e-10, cumulative = 4.0857e-07
DICPCG:  Solving for p, Initial residual = 0.000834883, Final residual = 8.47638e-07, No Iterations 65
time step continuity errors : sum local = 4.87581e-10, global = -1.0342e-11, cumulative = 4.08559e-07
ExecutionTime = 68.942 s  ClockTime = 69 s

End

